data_image0
_chemical_formula_structural       ZnH34C38N2O6
_chemical_formula_sum              "Zn1 H34 C38 N2 O6"
_cell_length_a       5.58597996429776
_cell_length_b       11.703180571727643
_cell_length_c       12.09651295479178
_cell_angle_alpha    99.9006859836515
_cell_angle_beta     101.496214016584
_cell_angle_gamma    103.57164711538857

_space_group_name_H-M_alt    "P 1"
_space_group_IT_number       1

loop_
  _space_group_symop_operation_xyz
  'x, y, z'

loop_
  _atom_site_type_symbol
  _atom_site_label
  _atom_site_symmetry_multiplicity
  _atom_site_fract_x
  _atom_site_fract_y
  _atom_site_fract_z
  _atom_site_occupancy
  Zn  Zn1       1.0  2.526552137296923e-06  1.3821592191005482e-06  0.4999981644634559  1.0000
  H   H1        1.0  0.3285144861124535  0.26282316422995666  0.9820322046553189  1.0000
  H   H2        1.0  0.6715125221223415  0.7371854935324504  0.017965051833627375  1.0000
  H   H3        1.0  0.3749340060360565  0.23833908320151653  0.1836559534217628  1.0000
  H   H4        1.0  0.6250851057944259  0.7616686915129874  0.8163420264512382  1.0000
  H   H5        1.0  0.6930100807093993  0.1405509528631512  0.26922137184601524  1.0000
  H   H6        1.0  0.3069778002885569  0.8594442061715882  0.7307723460109019  1.0000
  H   H7        1.0  0.9639156379064456  0.06515835081211918  0.1497754581346626  1.0000
  H   H8        1.0  0.0360624813640555  0.9348269314957349  0.8502223673175352  1.0000
  H   H9        1.0  0.9126878948807967  0.0864727696580587  0.9466701142831583  1.0000
  H   H10       1.0  0.08730860146062011  0.9135124692703799  0.05332624469032516  1.0000
  H   H11       1.0  0.732524714798174  0.1459641286542563  0.7942802615554995  1.0000
  H   H12       1.0  0.26747203842875666  0.854033740004766  0.2057155937639337  1.0000
  H   H13       1.0  0.059477181083032224  0.33632082617913983  0.892010514417457  1.0000
  H   H14       1.0  0.9405205398396247  0.6636852144469713  0.1079916617485353  1.0000
  H   H15       1.0  0.2023931794153881  0.5542806605990336  0.8934696487151613  1.0000
  H   H16       1.0  0.7975892693210581  0.44572718052400256  0.1065287895639244  1.0000
  H   H17       1.0  0.8917367355048353  0.6597635000529606  0.820132342856809  1.0000
  H   H18       1.0  0.10823014568168791  0.34023986401057027  0.1798671460398681  1.0000
  H   H19       1.0  0.429231239475989  0.5453935657379319  0.7441718683613346  1.0000
  H   H20       1.0  0.5707383426482905  0.45460264154069563  0.2558358818786389  1.0000
  H   H21       1.0  0.28768983683377763  0.3289490412080055  0.7436762267613943  1.0000
  H   H22       1.0  0.7123017431469304  0.6710471262255026  0.25633124843493255  1.0000
  H   H23       1.0  0.2954892150251211  0.8109236308882469  0.41415168402479463  1.0000
  H   H24       1.0  0.7045065845974676  0.18907874980169473  0.5858439455976168  1.0000
  H   H25       1.0  0.2980187494242798  0.601589755501763  0.40692846995408877  1.0000
  H   H26       1.0  0.7019681348062362  0.3984125858270248  0.5930604692536364  1.0000
  H   H27       1.0  0.7009149438250332  0.5697993646617122  0.5895302555675033  1.0000
  H   H28       1.0  0.2991234905150505  0.4302085617682464  0.41049036178210946  1.0000
  H   H29       1.0  0.7192315942054747  0.7824516951409848  0.5847721624900616  1.0000
  H   H30       1.0  0.2807984581787792  0.21755709504085272  0.41524195759247823  1.0000
  H   H31       1.0  0.8877191008445705  0.0364726298918399  0.6857789536635581  1.0000
  H   H32       1.0  0.11229471978668927  0.9635234434291107  0.3142216476855283  1.0000
  H   H33       1.0  0.5962186291736059  0.0089218377727391  0.6143378991280032  1.0000
  H   H34       1.0  0.40380131486416093  0.9910814520445541  0.38566360584381715  1.0000
  C   C1        1.0  0.4670491830809595  0.2188706453712256  0.018177948418312384  1.0000
  C   C2        1.0  0.5329620404741675  0.7811299009046451  0.9818172948387557  1.0000
  C   C3        1.0  0.49504000009199695  0.20600605451079448  0.1321663586649038  1.0000
  C   C4        1.0  0.5049666093175132  0.7939900049581538  0.867831034963608  1.0000
  C   C5        1.0  0.6733901031119628  0.1509062999638431  0.18037596249726565  1.0000
  C   C6        1.0  0.3265919930062892  0.849085249867869  0.8196166161846038  1.0000
  C   C7        1.0  0.8242924473394804  0.10840757960171737  0.11326822966348261  1.0000
  C   C8        1.0  0.17569029420558013  0.8915758441223361  0.8867239854172837  1.0000
  C   C9        1.0  0.7940128498276021  0.1196055193796681  0.9986991555396331  1.0000
  C   C10       1.0  0.20598241508120202  0.88038061071952  0.001295563588250668  1.0000
  C   C11       1.0  0.6144612897776013  0.17423126827274157  0.9496580265465442  1.0000
  C   C12       1.0  0.38554381037101143  0.8257620615067865  0.05033631308779732  1.0000
  C   C13       1.0  0.5915859042666866  0.18556490415661392  0.8249701054117651  1.0000
  C   C14       1.0  0.4084192788007783  0.8144347506633595  0.17502521967121265  1.0000
  C   C15       1.0  0.6646649464923157  0.3177190261915541  0.8181052696566982  1.0000
  C   C16       1.0  0.3353265775114664  0.682282474984767  0.18189227478483624  1.0000
  C   C17       1.0  0.9221038633232084  0.382545929224989  0.8590269074895289  1.0000
  C   C18       1.0  0.07789075743635013  0.6174636744595715  0.14096889258637907  1.0000
  C   C19       1.0  0.0025287684270126182  0.5045393369624946  0.8594399909658679  1.0000
  C   C20       1.0  0.9974578123108485  0.4954630722005858  0.14055719674634304  1.0000
  C   C21       1.0  0.8260483777395178  0.5640202352754997  0.8183428228840627  1.0000
  C   C22       1.0  0.17392923972156646  0.43597948461358993  0.18165470191699745  1.0000
  C   C23       1.0  0.5694816778859957  0.5000434018744782  0.776161784815024  1.0000
  C   C24       1.0  0.43050142909107336  0.49995364966120787  0.22384166766558175  1.0000
  C   C25       1.0  0.4887846559274607  0.37741593101131343  0.7758409194305786  1.0000
  C   C26       1.0  0.511197535923479  0.6225792803811387  0.22415802250256442  1.0000
  C   C27       1.0  0.3314195253231702  0.11798531795969323  0.7426462966985954  1.0000
  C   C28       1.0  0.6685828388168034  0.8820098552122104  0.25735218689858647  1.0000
  C   C29       1.0  0.16411401787099322  0.7549258434787305  0.4518846402934572  1.0000
  C   C30       1.0  0.8358877311914483  0.24507744901740117  0.5481133820543819  1.0000
  C   C31       1.0  0.16638400298312206  0.6358092673273462  0.4494133203674765  1.0000
  C   C32       1.0  0.8336200747336802  0.36419493344068593  0.5505859032707293  1.0000
  C   C33       1.0  0.0004427237862784144  0.5634594684246037  0.4994125613468726  1.0000
  C   C34       1.0  0.999578135377625  0.4365456615359164  0.5005934541724103  1.0000
  C   C35       1.0  0.8351019964195883  0.6183015626774803  0.54809174163875  1.0000
  C   C36       1.0  0.1649291228371298  0.3817090337304452  0.4519227647390098  1.0000
  C   C37       1.0  0.8436874462957532  0.7377679876465566  0.5463860588455136  1.0000
  C   C38       1.0  0.15633300551386498  0.26223989397823283  0.45362530192697653  1.0000
  N   N1        1.0  0.006095983871048679  0.8067737973531661  0.49946085762994846  1.0000
  N   N2        1.0  0.9939146805834652  0.1932295345041197  0.5005438551325767  1.0000
  O   O1        1.0  0.33218365273788214  0.06327679117867291  0.640372401680935  1.0000
  O   O2        1.0  0.6678114091325539  0.9367183884915063  0.3596253487470166  1.0000
  O   O3        1.0  0.13329615055047128  0.12213406710561968  0.7759267699188542  1.0000
  O   O4        1.0  0.8666955811765648  0.8778620664107424  0.22407658102523  1.0000
  O   O5        1.0  0.7523865862509211  0.9819421329294187  0.6151191284210571  1.0000
  O   O6        1.0  0.24762212655425486  0.018057545775121805  0.384879862648333  1.0000
