data_image0
_chemical_formula_structural       P4H30Pb4C16N2O12
_chemical_formula_sum              "P4 H30 Pb4 C16 N2 O12"
_cell_length_a       6.9359709753963115
_cell_length_b       7.058059248662356
_cell_length_c       14.564481878580812
_cell_angle_alpha    84.68353794207096
_cell_angle_beta     81.8663961096059
_cell_angle_gamma    89.49397318508417

_space_group_name_H-M_alt    "P 1"
_space_group_IT_number       1

loop_
  _space_group_symop_operation_xyz
  'x, y, z'

loop_
  _atom_site_type_symbol
  _atom_site_label
  _atom_site_symmetry_multiplicity
  _atom_site_fract_x
  _atom_site_fract_y
  _atom_site_fract_z
  _atom_site_occupancy
  P   P1        1.0  0.6165529480043048  0.15447484975644696  0.10476969171573815  1.0000
  P   P2        1.0  0.38348187478444373  0.8455291993589851  0.895228719463802  1.0000
  P   P3        1.0  0.9219037570495915  0.6345150527074422  0.15271899919513038  1.0000
  P   P4        1.0  0.07808272586474631  0.3654719670189621  0.8472712366553454  1.0000
  H   H1        1.0  0.4156651946827523  0.5176039808860721  0.3503506399733568  1.0000
  H   H2        1.0  0.584346084765322  0.4823588193566052  0.6496492174731829  1.0000
  H   H3        1.0  0.5834079286271391  0.12434280120951509  0.3991182838955468  1.0000
  H   H4        1.0  0.4165975462745309  0.8756071881908977  0.6008880486252366  1.0000
  H   H5        1.0  0.671381127862958  0.3396084863149794  0.42986724241879415  1.0000
  H   H6        1.0  0.32862733823792933  0.6603357998690739  0.5701459985027598  1.0000
  H   H7        1.0  0.4431476726207962  0.1801153679219212  0.5613071279737201  1.0000
  H   H8        1.0  0.5568230587918849  0.8198759080011654  0.43869982654229045  1.0000
  H   H9        1.0  0.34734584256127476  0.39930994599068004  0.5213986758474932  1.0000
  H   H10       1.0  0.6526627025278202  0.6007240201250568  0.47858653170195725  1.0000
  H   H11       1.0  0.08760371342308561  0.1558732291815517  0.545320653565746  1.0000
  H   H12       1.0  0.912358556237372  0.8442233737539764  0.4546657283241585  1.0000
  H   H13       1.0  0.23170368691956614  0.007316519178125699  0.4719778521941792  1.0000
  H   H14       1.0  0.768204596937217  0.9926947086981099  0.5280374442284811  1.0000
  H   H15       1.0  0.07229255941136611  0.3995122563771146  0.4127511878187137  1.0000
  H   H16       1.0  0.9278077096862989  0.6005586711384793  0.5872121414235496  1.0000
  H   H17       1.0  0.9959588057521956  0.17825053295222656  0.3825378012545429  1.0000
  H   H18       1.0  0.004028178824583497  0.8218375174887669  0.6174472105982717  1.0000
  H   H19       1.0  0.31947680150100405  0.12730581541419642  0.2918214708763358  1.0000
  H   H20       1.0  0.680537540947718  0.8726569695641473  0.7081877829164969  1.0000
  H   H21       1.0  0.22006116504361023  0.3470179352948861  0.2529672052241169  1.0000
  H   H22       1.0  0.7799963161665461  0.652916401251403  0.7470141681044569  1.0000
  H   H23       1.0  0.6620732816382073  0.10826133788773258  0.2644198361357368  1.0000
  H   H24       1.0  0.33781872052404094  0.8917385342692512  0.735584074102846  1.0000
  H   H25       1.0  0.8517632797801584  0.2479141227689041  0.19988625879113908  1.0000
  H   H26       1.0  0.1482409475238242  0.7519817517616973  0.8001534713625207  1.0000
  H   H27       1.0  0.8486453078463969  0.49638199334358285  0.3119373488235838  1.0000
  H   H28       1.0  0.1513593881553916  0.5036804006456491  0.6880708964495171  1.0000
  H   H29       1.0  0.6795072114817203  0.6750262838784948  0.2840325381163353  1.0000
  H   H30       1.0  0.3204894859616304  0.3250091304994526  0.7159403985497406  1.0000
  Pb  Pb1       1.0  0.4201437642744069  0.6352430905212146  0.11668987088601313  1.0000
  Pb  Pb2       1.0  0.5797949569072147  0.3646926812814825  0.8833417368636137  1.0000
  Pb  Pb3       1.0  0.8547594485230123  0.8583731660878228  0.926604441667948  1.0000
  Pb  Pb4       1.0  0.14522431171345573  0.14162380349499404  0.07339446980503792  1.0000
  C   C1        1.0  0.4607256961854632  0.37389473666770806  0.33156081266234594  1.0000
  C   C2        1.0  0.5392972628723102  0.62606947764651  0.6684395274794142  1.0000
  C   C3        1.0  0.5395940729353583  0.2690575473235768  0.4155860316401815  1.0000
  C   C4        1.0  0.46041728183082153  0.7309095169507172  0.5844170635719197  1.0000
  C   C5        1.0  0.38438931035804563  0.2551607935648832  0.5016811102295551  1.0000
  C   C6        1.0  0.6155959565785593  0.744841865033571  0.49831881423325813  1.0000
  C   C7        1.0  0.19953121579265343  0.15722341157616873  0.4836033884954249  1.0000
  C   C8        1.0  0.8004498051001293  0.8428119814400861  0.516392631715519  1.0000
  C   C9        1.0  0.12311232423818554  0.25520595736433893  0.3978273384947714  1.0000
  C   C10       1.0  0.876906418927682  0.7448265787495099  0.6021578968296384  1.0000
  C   C11       1.0  0.2797678415853611  0.27089271122517283  0.31200699810383276  1.0000
  C   C12       1.0  0.7202624278014157  0.729068648971932  0.6879956977379181  1.0000
  C   C13       1.0  0.6930204060672268  0.2310322997477527  0.21233290954010905  1.0000
  C   C14       1.0  0.30698093752611305  0.7689561081576954  0.7876747502871595  1.0000
  C   C15       1.0  0.7561721009440917  0.5482885079445198  0.2590523639239136  1.0000
  C   C16       1.0  0.24384232939130612  0.4517212480492815  0.7409451779688683  1.0000
  N   N1        1.0  0.6074598436476749  0.40768153593869266  0.2468075993480312  1.0000
  N   N2        1.0  0.39257063817724713  0.5923111244198864  0.7531971198396408  1.0000
  O   O1        1.0  0.8029679422676638  0.11085190511900579  0.03890396297630623  1.0000
  O   O2        1.0  0.19702603378235753  0.8892233546803892  0.9610667044141012  1.0000
  O   O3        1.0  0.47687060767154327  0.9856412430902352  0.1326852493008062  1.0000
  O   O4        1.0  0.5231874187156933  0.014324363665409099  0.8673194103730851  1.0000
  O   O5        1.0  0.5047334984447077  0.3210135660002109  0.05735924854906931  1.0000
  O   O6        1.0  0.49517050404811874  0.6789577956773698  0.9426766663791145  1.0000
  O   O7        1.0  0.022027948227083996  0.811809842505056  0.17636576962969036  1.0000
  O   O8        1.0  0.9780375442935851  0.18819845143134017  0.8236343990834104  1.0000
  O   O9        1.0  0.06989325550386381  0.47443933402367117  0.12981068062353532  1.0000
  O   O10       1.0  0.9301123476193924  0.525580400422811  0.870178116005569  1.0000
  O   O11       1.0  0.7841246158833074  0.6701340968421616  0.07750178737742174  1.0000
  O   O12       1.0  0.21588580842925612  0.32991548998270304  0.9225045628402884  1.0000
