data_image0
_chemical_formula_structural       Ag8H40C52I4N8O16
_chemical_formula_sum              "Ag8 H40 C52 I4 N8 O16"
_cell_length_a       8.730713426
_cell_length_b       13.573521780552149
_cell_length_c       15.0839
_cell_angle_alpha    115.37233351679114
_cell_angle_beta     90.0
_cell_angle_gamma    108.76069211809958

_space_group_name_H-M_alt    "P 1"
_space_group_IT_number       1

loop_
  _space_group_symop_operation_xyz
  'x, y, z'

loop_
  _atom_site_type_symbol
  _atom_site_label
  _atom_site_symmetry_multiplicity
  _atom_site_fract_x
  _atom_site_fract_y
  _atom_site_fract_z
  _atom_site_occupancy
  Ag  Ag1       1.0  0.9705596702128716  0.303930652337236  0.7802891369883936  1.0000
  Ag  Ag2       1.0  0.6665806739151705  0.6959042128081379  0.7196199406518886  1.0000
  Ag  Ag3       1.0  0.02943941743704668  0.6960673747987159  0.21971003599413313  1.0000
  Ag  Ag4       1.0  0.3334197225529607  0.30409643189985053  0.2803802416468386  1.0000
  Ag  Ag5       1.0  0.001743649853637  0.0128470435787804  0.9113400033080054  1.0000
  Ag  Ag6       1.0  0.9890473208949189  0.9873036752595825  0.5887286537890191  1.0000
  Ag  Ag7       1.0  0.9982586011052917  0.9871527286052029  0.08865586480087721  1.0000
  Ag  Ag8       1.0  0.010949639427899201  0.012696969448406  0.41127285442674827  1.0000
  H   H1        1.0  0.04426984520759451  0.28971200100880884  0.55766441298573  1.0000
  H   H2        1.0  0.7546447720241006  0.710180450721474  0.9423039952879435  1.0000
  H   H3        1.0  0.9557321329150383  0.7102895162231989  0.44233544279320813  1.0000
  H   H4        1.0  0.24535633355305464  0.28981932146250244  0.05769585057205261  1.0000
  H   H5        1.0  0.5345267127931095  0.1709553750663559  0.9311562208527346  1.0000
  H   H6        1.0  0.36381361634904863  0.8292869587934534  0.5689802472786099  1.0000
  H   H7        1.0  0.4654721020205131  0.8290443971176203  0.06884561388281442  1.0000
  H   H8        1.0  0.6361785990102504  0.1707110683424986  0.4310175997868768  1.0000
  H   H9        1.0  0.3336604471054443  0.6486718703706273  0.7059766128556006  1.0000
  H   H10       1.0  0.684974719016779  0.3512153462155753  0.7939486733575264  1.0000
  H   H11       1.0  0.6663422401262196  0.3513287743373681  0.2940242324016467  1.0000
  H   H12       1.0  0.3150288407603625  0.6487870435404446  0.20605284477719005  1.0000
  H   H13       1.0  0.22872632515799302  0.5706848014956805  0.8466072566886851  1.0000
  H   H14       1.0  0.658212131924067  0.4292582566274065  0.6533209987647979  1.0000
  H   H15       1.0  0.7712706351648252  0.429315843212315  0.15339358856856217  1.0000
  H   H16       1.0  0.3417974275982161  0.5707423880805891  0.34668117240948954  1.0000
  H   H17       1.0  0.9868356666871846  0.21411913802765534  0.08281598799003119  1.0000
  H   H18       1.0  0.7728851570371447  0.7860307082866953  0.41723907349788186  1.0000
  H   H19       1.0  0.013164566344507073  0.7858788891082967  0.9171838479510155  1.0000
  H   H20       1.0  0.22710951252212652  0.21396993642130013  0.5827597828838051  1.0000
  H   H21       1.0  0.1335393736235417  0.6226540768039612  0.5469053046636602  1.0000
  H   H22       1.0  0.510726446745636  0.3773038142273606  0.9530790550956921  1.0000
  H   H23       1.0  0.8664601502991118  0.3773448228560028  0.4530942047576047  1.0000
  H   H24       1.0  0.48927465883152627  0.6226959579566227  0.046920127805783786  1.0000
  H   H25       1.0  0.09202704243936922  0.522288512023792  0.41933020060361054  1.0000
  H   H26       1.0  0.5697189394359228  0.47767723172364646  0.08065188343618962  1.0000
  H   H27       1.0  0.9079731905923155  0.47770951511216  0.5806689723789233  1.0000
  H   H28       1.0  0.43028102075946617  0.5223225404603298  0.9193479624238065  1.0000
  H   H29       1.0  0.5331292702069987  0.1215469577384951  0.19463906257201555  1.0000
  H   H30       1.0  0.4116251048444326  0.8785138911264525  0.30540952642297003  1.0000
  H   H31       1.0  0.4668711262611254  0.8784536869695003  0.8053631086022719  1.0000
  H   H32       1.0  0.5883720189148178  0.1214893711535865  0.6945903392749173  1.0000
  H   H33       1.0  0.174525706761159  0.3832247621848168  0.4526585834953209  1.0000
  H   H34       1.0  0.7914077210526287  0.6166066128645085  0.04728163335744989  1.0000
  H   H35       1.0  0.8254761079250346  0.6167741374751543  0.5473422518429842  1.0000
  H   H36       1.0  0.20859267541549545  0.38339403184348714  0.9527198748583173  1.0000
  H   H37       1.0  0.3321866422013571  0.5239846987065633  0.5108108804765621  1.0000
  H   H38       1.0  0.808097184906309  0.4757855996617907  0.9891177189182726  1.0000
  H   H39       1.0  0.6678144633758053  0.4760150734774129  0.489188302424914  1.0000
  H   H40       1.0  0.1919039206708533  0.5242141725221856  0.010883452858763583  1.0000
  C   C1        1.0  0.10915579937322664  0.37527694094336544  0.6188512506523834  1.0000
  C   C2        1.0  0.7340098780823467  0.6246277261231157  0.8810993271739134  1.0000
  C   C3        1.0  0.8908445970948974  0.62472370376463  0.38114893164634367  1.0000
  C   C4        1.0  0.2659935182583553  0.3753720460608676  0.11890051868608244  1.0000
  C   C5        1.0  0.6020882790977352  0.17214898791719693  0.9925078830630341  1.0000
  C   C6        1.0  0.4302062432303728  0.8281587852436445  0.5076551438902897  1.0000
  C   C7        1.0  0.39791282647942694  0.8278507842667865  0.007493288713995175  1.0000
  C   C8        1.0  0.5697891354379365  0.17184098694033884  0.49234337605267336  1.0000
  C   C9        1.0  0.5176422395472287  0.1456033173221982  0.0629607523743019  1.0000
  C   C10       1.0  0.3721757968047186  0.8546102232451531  0.4371838390759136  1.0000
  C   C11       1.0  0.4823577206481602  0.854396454861778  0.9370410823612473  1.0000
  C   C12       1.0  0.6278204544090614  0.1453912939868545  0.5628153537445115  1.0000
  C   C13       1.0  0.3343680593868612  0.1110470037567666  0.0508678733008878  1.0000
  C   C14       1.0  0.22327673300407014  0.8889719639555197  0.4492096478142074  1.0000
  C   C15       1.0  0.6656314645357924  0.8889518959032046  0.9491329620374175  1.0000
  C   C16       1.0  0.7767195182097097  0.111029553276488  0.5507875561306648  1.0000
  C   C17       1.0  0.26046102329411985  0.5633285515355695  0.6981711289026507  1.0000
  C   C18       1.0  0.6971910175038688  0.4365595375746453  0.8017551567077277  1.0000
  C   C19       1.0  0.7395400822830425  0.4366712206484139  0.3018293799158656  1.0000
  C   C20       1.0  0.3028117791276586  0.5634367445132753  0.19824599523141728  1.0000
  C   C21       1.0  0.20681577825067882  0.5231400954612369  0.7662280859516031  1.0000
  C   C22       1.0  0.6837994110040881  0.4767732968453799  0.7336933712946063  1.0000
  C   C23       1.0  0.7931834728356789  0.4768605492467586  0.23377143338861117  1.0000
  C   C24       1.0  0.3162081305909581  0.5232256028145841  0.26630149741702513  1.0000
  C   C25       1.0  0.7707561173707164  0.1953677244476779  0.9989382970103122  1.0000
  C   C26       1.0  0.575628543538933  0.8048807170802236  0.5011773226440113  1.0000
  C   C27       1.0  0.22924526104274176  0.804630302688274  0.001060875972214523  1.0000
  C   C28       1.0  0.42436612602033813  0.19511992762777203  0.4988208707791628  1.0000
  C   C29       1.0  0.8553550800956913  0.1949689809733854  0.07765075285090009  1.0000
  C   C30       1.0  0.6606314961442905  0.8052716078383924  0.4224644906889025  1.0000
  C   C31       1.0  0.1446462983177668  0.8050290461625664  0.9223490830901468  1.0000
  C   C32       1.0  0.3393650279057852  0.19472816434558382  0.5775333662955333  1.0000
  C   C33       1.0  0.08791873018171265  0.5289502328689437  0.4945889971076056  1.0000
  C   C34       1.0  0.5589179265892312  0.4710111482584339  0.0053914047385248045  1.0000
  C   C35       1.0  0.912081502849972  0.47104779426700827  0.5054101758749212  1.0000
  C   C36       1.0  0.44108317898793103  0.5289886239255495  0.9946091040799843  1.0000
  C   C37       1.0  0.6017821064513954  0.143917600927594  0.14143684082375776  1.0000
  C   C38       1.0  0.4579705529435785  0.8562662738232945  0.35869100804140425  1.0000
  C   C39       1.0  0.3982194353985022  0.8560830437804016  0.8585653303505224  1.0000
  C   C40       1.0  0.542024552888428  0.14373524340871313  0.641308184779021  1.0000
  C   C41       1.0  0.20543521339890702  0.4733966289120843  0.5108518311276952  1.0000
  C   C42       1.0  0.7320575111857365  0.5264513240935003  0.9890808559321016  1.0000
  C   C43       1.0  0.794565455905513  0.5266022707478797  0.4891483412520898  1.0000
  C   C44       1.0  0.2679424490096523  0.4735484480904831  0.010919652886407517  1.0000
  C   C45       1.0  0.7705789417921736  0.1700767433844916  0.14818561432161909  1.0000
  C   C46       1.0  0.6006302926413909  0.830097533602249  0.35191400425229347  1.0000
  C   C47       1.0  0.229423309166755  0.8299230287994916  0.851814894496897  1.0000
  C   C48       1.0  0.3993625224270758  0.1699039836297587  0.6480858515266446  1.0000
  C   C49       1.0  0.8643419508642369  0.21774360278086394  0.921795346992127  1.0000
  C   C50       1.0  0.6467589263398139  0.7823765777170166  0.5782555681225857  1.0000
  C   C51       1.0  0.1356582821674479  0.782254424355088  0.07820448894891999  1.0000
  C   C52       1.0  0.3532368886012307  0.21762406699097175  0.42174395121762126  1.0000
  I   I1        1.0  0.90651115694385  0.1693586561211546  0.2637832669746842  1.0000
  I   I2        1.0  0.7369180922687306  0.8305372857051838  0.23612019120205474  1.0000
  I   I3        1.0  0.09349153028781391  0.8306419885868408  0.7362175782825631  1.0000
  I   I4        1.0  0.2630788680540803  0.1694633590028047  0.7638793281381524  1.0000
  N   N1        1.0  0.11269425289437152  0.40558144498969284  0.7158413021848062  1.0000
  N   N2        1.0  0.7072758053677931  0.5943520153692462  0.7841197151611468  1.0000
  N   N3        1.0  0.8873038528102128  0.5944191997183026  0.284158880113921  1.0000
  N   N4        1.0  0.292730318009184  0.40564862933874934  0.21588113009610044  1.0000
  N   N5        1.0  0.19889618229193934  0.4687670164950077  0.6057963128403114  1.0000
  N   N6        1.0  0.7302025823172472  0.5311140924230955  0.8941392145135437  1.0000
  N   N7        1.0  0.8011065049397248  0.5312336282129806  0.3942038694584226  1.0000
  N   N8        1.0  0.2697989595326504  0.4688865522848999  0.10586163074370349  1.0000
  O   O1        1.0  0.2648537792735794  0.10987433148225283  0.9760940719486371  1.0000
  O   O2        1.0  0.15499678449474896  0.8901716844744529  0.5240024972279044  1.0000
  O   O3        1.0  0.7351473263035828  0.8901254407017234  0.023907099828399198  1.0000
  O   O4        1.0  0.844992703828268  0.1098254701374799  0.475993687481818  1.0000
  O   O5        1.0  0.9967175683297071  0.19776716548555132  0.9098138479316732  1.0000
  O   O6        1.0  0.7991651220000618  0.8026252425046252  0.5904076689609354  1.0000
  O   O7        1.0  0.003280646774740636  0.8022291166023693  0.0901859780904317  1.0000
  O   O8        1.0  0.20083069294098274  0.1973754022033702  0.40959185037927176  1.0000
  O   O9        1.0  0.26411145175503487  0.0851688140323006  0.1163056091434171  1.0000
  O   O10       1.0  0.17870779677347315  0.9146442380127269  0.3836726236752384  1.0000
  O   O11       1.0  0.7358887812766497  0.9148292131036515  0.88369488975615  1.0000
  O   O12       1.0  0.8212929265675301  0.08536164183934862  0.6163282513388494  1.0000
  O   O13       1.0  0.8040581428198407  0.2586990074632993  0.8734515116428339  1.0000
  O   O14       1.0  0.5453946560708334  0.7409692055954482  0.6263024808824795  1.0000
  O   O15       1.0  0.1959425264845862  0.7412998921966647  0.12654932369546398  1.0000
  O   O16       1.0  0.4546014317065072  0.2590296940645231  0.3736970285387855  1.0000
