data_image0
_chemical_formula_structural       Cd4H48C48O24
_chemical_formula_sum              "Cd4 H48 C48 O24"
_cell_length_a       8.06383152211524
_cell_length_b       10.919431685893262
_cell_length_c       14.244331955242476
_cell_angle_alpha    100.00985321522228
_cell_angle_beta     90.00060983577782
_cell_angle_gamma    89.99991541051723

_space_group_name_H-M_alt    "P 1"
_space_group_IT_number       1

loop_
  _space_group_symop_operation_xyz
  'x, y, z'

loop_
  _atom_site_type_symbol
  _atom_site_label
  _atom_site_symmetry_multiplicity
  _atom_site_fract_x
  _atom_site_fract_y
  _atom_site_fract_z
  _atom_site_occupancy
  Cd  Cd1       1.0  0.9485397690016554  0.9924661499471269  0.03635072038044028  1.0000
  Cd  Cd2       1.0  0.4485439318558375  0.007533157601066906  0.9636471814671167  1.0000
  Cd  Cd3       1.0  0.8540881893916603  0.39055394763306583  0.0841766188672324  1.0000
  Cd  Cd4       1.0  0.35408159436158826  0.6094396480443435  0.9158247945335205  1.0000
  H   H1        1.0  0.690703437371482  0.3327893901676404  0.2488001207849422  1.0000
  H   H2        1.0  0.190706047266211  0.6672153500315472  0.7512005242957683  1.0000
  H   H3        1.0  0.7155998055283985  0.11602333508410818  0.36009167629358524  1.0000
  H   H4        1.0  0.21560114598000976  0.8839860456304933  0.6399104975791516  1.0000
  H   H5        1.0  0.7557112659663118  0.18919747988487498  0.5274834471049914  1.0000
  H   H6        1.0  0.2557133358237351  0.8108072778614922  0.4725175935885915  1.0000
  H   H7        1.0  0.5187501506990699  0.4329417364540545  0.3608426812899879  1.0000
  H   H8        1.0  0.0187372179644498  0.5670675604361648  0.6391596943694609  1.0000
  H   H9        1.0  0.4641892330513001  0.583862918985261  0.5084823656065112  1.0000
  H   H10       1.0  0.9641922447556509  0.4161390902071743  0.49152023727109645  1.0000
  H   H11       1.0  0.5604030643018233  0.5427552931129114  0.6647706727274567  1.0000
  H   H12       1.0  0.060409457951209285  0.45724282640088615  0.33523173052219585  1.0000
  H   H13       1.0  0.7554784226540077  0.23486761622965696  0.6963850204877531  1.0000
  H   H14       1.0  0.2554761792346483  0.7651306326582058  0.3036150704270568  1.0000
  H   H15       1.0  0.7309881352081362  0.5126398924605837  0.784419333832851  1.0000
  H   H16       1.0  0.23098106827261936  0.4873582884404968  0.21558340760233818  1.0000
  H   H17       1.0  0.7256144980130868  0.8045707165327726  0.2573485826208993  1.0000
  H   H18       1.0  0.22561663381999605  0.1954276470458467  0.7426457274175462  1.0000
  H   H19       1.0  0.7525039614462301  0.6210573366251709  0.3984107336101275  1.0000
  H   H20       1.0  0.2525117762461874  0.37894379300815473  0.601585546307561  1.0000
  H   H21       1.0  0.7440206183825636  0.7277463332230596  0.5652328246272376  1.0000
  H   H22       1.0  0.24403047915256337  0.27225387963670755  0.4347625682981331  1.0000
  H   H23       1.0  0.5358543170690523  0.9074739646254527  0.3459005525141094  1.0000
  H   H24       1.0  0.03585127637153109  0.09253545963412077  0.6540963281168501  1.0000
  H   H25       1.0  0.42278224914193874  0.0738930837679135  0.4690326829465761  1.0000
  H   H26       1.0  0.922776317656499  0.9261137168248369  0.5309633463719621  1.0000
  H   H27       1.0  0.47248975834829565  0.07164796350888028  0.6407105172906071  1.0000
  H   H28       1.0  0.9724942488149962  0.928350451363997  0.35928599504356384  1.0000
  H   H29       1.0  0.59199272989823  0.9940052720953714  0.7616283219168238  1.0000
  H   H30       1.0  0.09200439613465507  0.005982719902846197  0.2383685839688212  1.0000
  H   H31       1.0  0.8239133563630644  0.7657885438455945  0.7225818678949452  1.0000
  H   H32       1.0  0.3239166250075058  0.2342070414390065  0.2774133338172504  1.0000
  H   H33       1.0  0.11739115187863547  0.8074927252327196  0.11737894528077668  1.0000
  H   H34       1.0  0.6173907653655489  0.19250731535011306  0.8826219760335476  1.0000
  H   H35       1.0  0.9291777419447412  0.7606364808234504  0.11636233352417952  1.0000
  H   H36       1.0  0.42917623110857045  0.23936186098201517  0.8836367147844443  1.0000
  H   H37       1.0  0.12308367079120328  0.07491231872941737  0.881806870974195  1.0000
  H   H38       1.0  0.623087373296272  0.9250849185630228  0.11819437845363719  1.0000
  H   H39       1.0  0.9644914738954427  0.16871705910003237  0.9017800272395249  1.0000
  H   H40       1.0  0.464495175297003  0.8312812001748141  0.09822343535311258  1.0000
  H   H41       1.0  0.20179365985549677  0.40367673215358474  0.04331576865070019  1.0000
  H   H42       1.0  0.7017951076396329  0.5963186360408271  0.956687088601626  1.0000
  H   H43       1.0  0.1314844380128193  0.2657085803799432  0.006079172620424294  1.0000
  H   H44       1.0  0.6314838319915239  0.7342840560718569  0.9939193508458146  1.0000
  H   H45       1.0  0.5131945927670856  0.29768474978492065  0.0939093518188017  1.0000
  H   H46       1.0  0.013190113390280098  0.7023077626735696  0.9060926511270821  1.0000
  H   H47       1.0  0.48664236934383337  0.43650729744150846  0.0732812917521812  1.0000
  H   H48       1.0  0.9866358798321995  0.5634881476396529  0.9267232989638998  1.0000
  C   C1        1.0  0.7656723162720597  0.14516470654940153  0.18156654928992566  1.0000
  C   C2        1.0  0.2656745767724046  0.8548372030265341  0.8184369451627445  1.0000
  C   C3        1.0  0.7055216669008643  0.23788526968125004  0.2614517829995364  1.0000
  C   C4        1.0  0.20551765307178013  0.762119428485164  0.7385510519201616  1.0000
  C   C5        1.0  0.6875893546495319  0.21052859081169123  0.3493801182631984  1.0000
  C   C6        1.0  0.18758240047925057  0.7894770323418143  0.6506227429962621  1.0000
  C   C7        1.0  0.6447258168002391  0.30077690829916287  0.4337056488795028  1.0000
  C   C8        1.0  0.14472242114805303  0.6992296331127361  0.5662970870169204  1.0000
  C   C9        1.0  0.6932606787947222  0.2766872941539731  0.5232329096503818  1.0000
  C   C10       1.0  0.19325555936191557  0.7233174467344341  0.4767677509692732  1.0000
  C   C11       1.0  0.5612058153823796  0.41293696285919873  0.4293030055302225  1.0000
  C   C12       1.0  0.061199002000243787  0.5870705625554535  0.5706958580933801  1.0000
  C   C13       1.0  0.532035512371763  0.49863535844020385  0.5123400447704896  1.0000
  C   C14       1.0  0.03203475292658449  0.5013684091022056  0.487659499225046  1.0000
  C   C15       1.0  0.5878907002934849  0.47628600609495186  0.6003936505739418  1.0000
  C   C16       1.0  0.08788948823284669  0.5237205046321235  0.3996094393443812  1.0000
  C   C17       1.0  0.6693856293839032  0.36390616450807284  0.6068650348303847  1.0000
  C   C18       1.0  0.16939151616322326  0.6360929295945539  0.3931374672316608  1.0000
  C   C19       1.0  0.7273589408440414  0.3329104619631876  0.6965467083712156  1.0000
  C   C20       1.0  0.22735440666417617  0.6670868188185537  0.3034544757202013  1.0000
  C   C21       1.0  0.7509613166945143  0.41288225120310057  0.7788681853024286  1.0000
  C   C22       1.0  0.25095911828403666  0.5871131762940962  0.22113287147499247  1.0000
  C   C23       1.0  0.8042991055300064  0.36941838504005625  0.8662697951499325  1.0000
  C   C24       1.0  0.3042989054276929  0.630578962542053  0.1337297575044687  1.0000
  C   C25       1.0  0.8059582003620063  0.612766364985461  0.2118056622450766  1.0000
  C   C26       1.0  0.3059533718754464  0.3872319435595061  0.7881926361831546  1.0000
  C   C27       1.0  0.7476825044815312  0.7180834749913955  0.283860039047326  1.0000
  C   C28       1.0  0.24768397409243184  0.2819176073079532  0.7161383111900577  1.0000
  C   C29       1.0  0.7196669152104035  0.7084692480419292  0.3756738092695002  1.0000
  C   C30       1.0  0.21967780758966166  0.2915290679007754  0.6243225642813925  1.0000
  C   C31       1.0  0.6492704371592594  0.8063503753678134  0.4476726242474101  1.0000
  C   C32       1.0  0.14927025259234478  0.19365353122660878  0.5523227339450116  1.0000
  C   C33       1.0  0.6730292886224802  0.8042797892569523  0.5451410936865813  1.0000
  C   C34       1.0  0.17303347535701616  0.19571756892441533  0.4548555604390856  1.0000
  C   C35       1.0  0.5581149132857844  0.9052770938817999  0.4211324408683054  1.0000
  C   C36       1.0  0.058117900112066  0.09472399862428918  0.5788619561585406  1.0000
  C   C37       1.0  0.4939586225909237  0.9987117060472103  0.49027450721833793  1.0000
  C   C38       1.0  0.9939454281003819  0.0012941839289908029  0.5097218197538069  1.0000
  C   C39       1.0  0.5211364342079604  0.9970983720080965  0.5867135861409807  1.0000
  C   C40       1.0  0.0211352605689683  0.0029072829358511975  0.413284762695028  1.0000
  C   C41       1.0  0.6132877844903317  0.9006854502886625  0.6158535123698031  1.0000
  C   C42       1.0  0.11329083632665517  0.09931654090615176  0.38414345557875856  1.0000
  C   C43       1.0  0.6502078974174808  0.9134163287345557  0.7174572342163827  1.0000
  C   C44       1.0  0.1502165122821211  0.08658004742778047  0.2825412452421787  1.0000
  C   C45       1.0  0.7554920707824735  0.8450630821288313  0.7610981451045973  1.0000
  C   C46       1.0  0.25549973423920846  0.15493801762325177  0.2388995527843178  1.0000
  C   C47       1.0  0.8039438853061467  0.8855022417650247  0.8616177412236681  1.0000
  C   C48       1.0  0.30394850572322696  0.1144923776138356  0.1383786032742833  1.0000
  O   O1        1.0  0.81391874310588  0.2541554729254045  0.8692420545552295  1.0000
  O   O2        1.0  0.3139294220746364  0.7458408246757032  0.1307630203440482  1.0000
  O   O3        1.0  0.8357884606237888  0.454956140091447  0.9395303352428073  1.0000
  O   O4        1.0  0.3357907769326045  0.5450439134109786  0.06047401484874369  1.0000
  O   O5        1.0  0.7571566374756812  0.029333419108304802  0.1826802553230351  1.0000
  O   O6        1.0  0.2571574096290519  0.9706703478245657  0.8173234582584712  1.0000
  O   O7        1.0  0.8372715735718683  0.18506618385965368  0.11088915667896522  1.0000
  O   O8        1.0  0.33727895618926595  0.8149358064190083  0.8891119739426685  1.0000
  O   O9        1.0  0.0008534909029406998  0.8363337763557083  0.11955376335826877  1.0000
  O   O10       1.0  0.5008531202677985  0.16366345863097817  0.8804453424206642  1.0000
  O   O11       1.0  0.057117928166036294  0.1283548783616197  0.9319816359986463  1.0000
  O   O12       1.0  0.5571183158112588  0.8716423257806625  0.06801991186862474  1.0000
  O   O13       1.0  0.1287553960627932  0.3377371523141831  0.059530182478816585  1.0000
  O   O14       1.0  0.6287514503546702  0.6622581808207427  0.9404729301657682  1.0000
  O   O15       1.0  0.5706794761043666  0.3731078040722339  0.08081372592346273  1.0000
  O   O16       1.0  0.0706741499691432  0.6268911099466334  0.9191951743495181  1.0000
  O   O17       1.0  0.8276182003551326  0.505645221269013  0.23488942581335687  1.0000
  O   O18       1.0  0.3276090090508319  0.4943576348539904  0.7651145810634573  1.0000
  O   O19       1.0  0.8280833379839193  0.6307439587037817  0.12603827927657107  1.0000
  O   O20       1.0  0.3280677498038925  0.36925528563973137  0.8739602892430155  1.0000
  O   O21       1.0  0.9379289017106344  0.8423467101708294  0.8915137976574314  1.0000
  O   O22       1.0  0.43794031823192364  0.1576441953756174  0.1084842201199478  1.0000
  O   O23       1.0  0.7237008311397019  0.9704062799732467  0.9172780175953718  1.0000
  O   O24       1.0  0.22370705617009887  0.029585482230920904  0.0827195318223204  1.0000
