data_image0
_chemical_formula_structural       Ba2H30C40S4N10
_chemical_formula_sum              "Ba2 H30 C40 S4 N10"
_cell_length_a       10.014911676910964
_cell_length_b       10.580375148137987
_cell_length_c       10.349992166856213
_cell_angle_alpha    108.25160045771486
_cell_angle_beta     91.90238406045042
_cell_angle_gamma    92.98037536846753

_space_group_name_H-M_alt    "P 1"
_space_group_IT_number       1

loop_
  _space_group_symop_operation_xyz
  'x, y, z'

loop_
  _atom_site_type_symbol
  _atom_site_label
  _atom_site_symmetry_multiplicity
  _atom_site_fract_x
  _atom_site_fract_y
  _atom_site_fract_z
  _atom_site_occupancy
  Ba  Ba1       1.0  0.033584293533152704  0.5590558173140039  0.7269070074329064  1.0000
  Ba  Ba2       1.0  0.9664170478386397  0.4409434425755094  0.27308819219190633  1.0000
  H   H1        1.0  0.7099457158961471  0.5378561525339337  0.8915544459892999  1.0000
  H   H2        1.0  0.2900525132806352  0.4621410807654414  0.10843807649411019  1.0000
  H   H3        1.0  0.5081712765540871  0.6708122312058222  0.9427361620417897  1.0000
  H   H4        1.0  0.4918269378424114  0.32918503309038977  0.05725926824254657  1.0000
  H   H5        1.0  0.77252213784179  0.025988811575864194  0.017867175508143915  1.0000
  H   H6        1.0  0.22747706106208201  0.9740084874848238  0.9821312012689417  1.0000
  H   H7        1.0  0.962162458158467  0.8785992304559824  0.9700145940403856  1.0000
  H   H8        1.0  0.0378377498865845  0.12139805170778568  0.029981882894567487  1.0000
  H   H9        1.0  0.4120419725828058  0.883551722565805  0.018930790364883782  1.0000
  H   H10       1.0  0.5879559688087709  0.11644160414645911  0.9810682411903427  1.0000
  H   H11       1.0  0.4157045680490157  0.5175441839489634  0.696261657153805  1.0000
  H   H12       1.0  0.5842969398940738  0.48245810920368354  0.3037383533369108  1.0000
  H   H13       1.0  0.5869648670523092  0.35090408456542826  0.6726504594395735  1.0000
  H   H14       1.0  0.4130377071979794  0.6490991993339106  0.3273489317419801  1.0000
  H   H15       1.0  0.2687696763839895  0.06818662564895558  0.6975706179054058  1.0000
  H   H16       1.0  0.7312328357735184  0.9318156609390513  0.30242846201014817  1.0000
  H   H17       1.0  0.1109441162418889  0.2495522736003721  0.7243781051549901  1.0000
  H   H18       1.0  0.8890563973403051  0.7504500054523574  0.2756208973769318  1.0000
  H   H19       1.0  0.4789246929763351  0.9920102985640111  0.6681933827631495  1.0000
  H   H20       1.0  0.5210718283819917  0.007991955085898901  0.3318044957345307  1.0000
  H   H21       1.0  0.7194778131538514  0.18512697782002618  0.6637715260528195  1.0000
  H   H22       1.0  0.2805225368286841  0.8148733892682712  0.3362346080829254  1.0000
  H   H23       1.0  0.9347348228477445  0.09563621527680509  0.669258877554654  1.0000
  H   H24       1.0  0.06526075936056942  0.9043681635477796  0.33075218525391387  1.0000
  H   H25       1.0  0.073279196558417  0.9022660387867845  0.6588145388907448  1.0000
  H   H26       1.0  0.926720397580816  0.09773832411150349  0.3411937708841535  1.0000
  H   H27       1.0  0.7348886925935291  0.6479892830511034  0.6163482333908519  1.0000
  H   H28       1.0  0.2651116869495739  0.35201102204351287  0.3836520851430265  1.0000
  H   H29       1.0  0.5835949307723568  0.8268285498569411  0.6283323826354631  1.0000
  H   H30       1.0  0.4164033683956064  0.17317079172018168  0.3716714243166948  1.0000
  C   C1        1.0  0.23589959361002852  0.6599639664287195  0.5535386897563653  1.0000
  C   C2        1.0  0.7641024986783052  0.3400313079830823  0.4464553034962648  1.0000
  C   C3        1.0  0.8632333219561089  0.33040367223195943  0.8969710114720114  1.0000
  C   C4        1.0  0.13677301585397572  0.66959560649574  0.10302438161187402  1.0000
  C   C5        1.0  0.719579616398768  0.6465396097191839  0.9198693371244386  1.0000
  C   C6        1.0  0.28041847381217616  0.35345565995434913  0.08012547062790526  1.0000
  C   C7        1.0  0.6072587750547457  0.7207431818822414  0.9479278624302907  1.0000
  C   C8        1.0  0.39273943934176  0.27925408241396343  0.052067567854045586  1.0000
  C   C9        1.0  0.6216571710112717  0.8604010940265777  0.9801745811991934  1.0000
  C   C10       1.0  0.37834096651216953  0.1395952039551389  0.0198234456200836  1.0000
  C   C11       1.0  0.753056772957379  0.918223208626735  0.9902444478504436  1.0000
  C   C12       1.0  0.2469414887516095  0.08177508397765369  0.0097542015008258  1.0000
  C   C13       1.0  0.859243234743353  0.8360785368442976  0.9630157292712767  1.0000
  C   C14       1.0  0.14075395573167526  0.16391877534567809  0.03698450865613979  1.0000
  C   C15       1.0  0.502611597828448  0.9367292170029555  0.0012849148487033924  1.0000
  C   C16       1.0  0.4973874719631084  0.06326609776733959  0.9987138086633677  1.0000
  C   C17       1.0  0.3872379119723348  0.4165555509652988  0.6968569675114793  1.0000
  C   C18       1.0  0.6127645854048894  0.5834467666195451  0.30314502020500805  1.0000
  C   C19       1.0  0.48270399402260017  0.3231970301400011  0.6840711603975294  1.0000
  C   C20       1.0  0.5172958208823033  0.6768102523663443  0.3159312983065233  1.0000
  C   C21       1.0  0.44216449532308394  0.19345757527050006  0.6835491808936922  1.0000
  C   C22       1.0  0.5578371220252764  0.8065467435016628  0.31645435992995613  1.0000
  C   C23       1.0  0.3052703114970754  0.16711275717404558  0.697482603752462  1.0000
  C   C24       1.0  0.6947294984810668  0.8328945356645718  0.3025208242185754  1.0000
  C   C25       1.0  0.2172550620526152  0.26693792804450567  0.7110092193828663  1.0000
  C   C26       1.0  0.7827474501048926  0.7330643585435012  0.2889898605326876  1.0000
  C   C27       1.0  0.5305461276389494  0.08601121434273298  0.6696379854627708  1.0000
  C   C28       1.0  0.4694543711629535  0.9139910957068409  0.33036392487008465  1.0000
  C   C29       1.0  0.6649205490680146  0.0921423491802287  0.6610381153147245  1.0000
  C   C30       1.0  0.3350789356659477  0.9078599880985436  0.3389666641272483  1.0000
  C   C31       1.0  0.7463676817652002  0.9797371899225381  0.6515014448659144  1.0000
  C   C32       1.0  0.25362762446655307  0.020262130019396803  0.3485012767438178  1.0000
  C   C33       1.0  0.8869235352677409  0.9975091739830121  0.6576853453483337  1.0000
  C   C34       1.0  0.11307387401784301  0.0024921894459950986  0.3423219532449409  1.0000
  C   C35       1.0  0.9638883707280643  0.8901759277668333  0.6518148799018633  1.0000
  C   C36       1.0  0.036110104864718606  0.10982642640886553  0.3481917993822492  1.0000
  C   C37       1.0  0.7758252898013183  0.7492010600655377  0.6296603307985932  1.0000
  C   C38       1.0  0.22417314833248983  0.2508002451374267  0.3703411908846306  1.0000
  C   C39       1.0  0.6913945296041818  0.850321627136239  0.6362430685648235  1.0000
  C   C40       1.0  0.3086047688514455  0.14967771820852244  0.3637607770791504  1.0000
  S   S1        1.0  0.3184970588209027  0.7724214463154908  0.678391261317138  1.0000
  S   S2        1.0  0.681502174570305  0.22757578041923668  0.3216003305911102  1.0000
  S   S3        1.0  0.7774806982995487  0.28743093186525925  0.00919654609823787  1.0000
  S   S4        1.0  0.2225256542908198  0.712568315865603  0.9907959391847212  1.0000
  N   N1        1.0  0.1696148883830588  0.5745430577368537  0.469332955455215  1.0000
  N   N2        1.0  0.8303913774807228  0.4254552443440645  0.5306640648966265  1.0000
  N   N3        1.0  0.9233097152878429  0.3608667797255336  0.813188140514832  1.0000
  N   N4        1.0  0.07669450468812761  0.6391304865119379  0.18680558338645165  1.0000
  N   N5        1.0  0.844615447314226  0.7017599732104075  0.924676610388289  1.0000
  N   N6        1.0  0.1553847607308327  0.2982373089533609  0.07531986654666409  1.0000
  N   N7        1.0  0.2559233798835336  0.39046921518845323  0.7100692849167203  1.0000
  N   N8        1.0  0.744079241679252  0.6095350970190695  0.2899333253317664  1.0000
  N   N9        1.0  0.9107443785994249  0.7669631927182082  0.6388345666460394  1.0000
  N   N10       1.0  0.08925610542219431  0.2330391483282029  0.36117025148774934  1.0000
