data_image0
_chemical_formula_structural       Al4H24C60O20F8
_chemical_formula_sum              "Al4 H24 C60 O20 F8"
_cell_length_a       6.70803894810755
_cell_length_b       22.353303113893208
_cell_length_c       24.648524751919922
_cell_angle_alpha    96.13606094134666
_cell_angle_beta     89.96872160306181
_cell_angle_gamma    89.9774041161408

_space_group_name_H-M_alt    "P 1"
_space_group_IT_number       1

loop_
  _space_group_symop_operation_xyz
  'x, y, z'

loop_
  _atom_site_type_symbol
  _atom_site_label
  _atom_site_symmetry_multiplicity
  _atom_site_fract_x
  _atom_site_fract_y
  _atom_site_fract_z
  _atom_site_occupancy
  Al  Al1       1.0  0.20584954582955817  0.7491935140337631  0.7503403348230364  1.0000
  Al  Al2       1.0  0.794149810717748  0.25080648518091664  0.24965971433019973  1.0000
  Al  Al3       1.0  0.7058537732452876  0.750838490789512  0.7496847677169924  1.0000
  Al  Al4       1.0  0.29414409419584325  0.24916131317704074  0.250313649401285  1.0000
  H   H1        1.0  0.3546886190198605  0.12768246143129153  0.36617311649087014  1.0000
  H   H2        1.0  0.6453166940985822  0.8723245395805392  0.6338293701835838  1.0000
  H   H3        1.0  0.8546703761430052  0.3723781150688055  0.1338561350671341  1.0000
  H   H4        1.0  0.1453259663729725  0.627645299711368  0.8661638763662866  1.0000
  H   H5        1.0  0.7149939887422077  0.14229847369394122  0.3677198654201063  1.0000
  H   H6        1.0  0.2850083629148584  0.8576907571667931  0.6322724456686403  1.0000
  H   H7        1.0  0.21505249020487577  0.3576373987625274  0.13224481726493312  1.0000
  H   H8        1.0  0.784951364140717  0.6423458374202086  0.8677385242790551  1.0000
  H   H9        1.0  0.6963398551333241  0.07060388363616002  0.43897404751991337  1.0000
  H   H10       1.0  0.3036714398146287  0.929386737232555  0.5610186687938424  1.0000
  H   H11       1.0  0.1964065924162384  0.4293362844741679  0.060995086100661004  1.0000
  H   H12       1.0  0.8035987519742916  0.5706462035558886  0.9389894807984261  1.0000
  H   H13       1.0  0.2253620149926476  0.07935220626087161  0.9747402045879952  1.0000
  H   H14       1.0  0.7746328705399036  0.9206476467701563  0.0252586208293764  1.0000
  H   H15       1.0  0.7347252044510099  0.4223751014200091  0.5239409105747583  1.0000
  H   H16       1.0  0.26527117045174714  0.5776244995787893  0.4760595475581439  1.0000
  H   H17       1.0  0.8628265439335647  0.043009940922566194  0.9202005393473982  1.0000
  H   H18       1.0  0.13716536077581054  0.9569894162124087  0.0797978789676392  1.0000
  H   H19       1.0  0.37482667814124676  0.4564991600100825  0.5809318462607393  1.0000
  H   H20       1.0  0.6251696967615175  0.5435004409887156  0.4190686118721629  1.0000
  H   H21       1.0  0.45280644106323104  0.8271956952986059  0.7701015717591915  1.0000
  H   H22       1.0  0.5471944074650992  0.17280415728362897  0.22989725314199924  1.0000
  H   H23       1.0  0.9530815908500754  0.6728320886666596  0.7299170240708152  1.0000
  H   H24       1.0  0.046919258382267494  0.32716851195606017  0.27008057534622054  1.0000
  C   C1        1.0  0.45690769653979396  0.6738775212224369  0.6724668331559087  1.0000
  C   C2        1.0  0.5430901699332934  0.32612198198399506  0.32753280876594454  1.0000
  C   C3        1.0  0.9564266098421256  0.826153745801392  0.8275662122046441  1.0000
  C   C4        1.0  0.04356827569041848  0.17384610722963603  0.1724326132127274  1.0000
  C   C5        1.0  0.45793634668412847  0.6809470597306628  0.8193183117332198  1.0000
  C   C6        1.0  0.5420585360028625  0.3190543793418641  0.1806825518474326  1.0000
  C   C7        1.0  0.9579889084424663  0.8190678999589451  0.6806957605575051  1.0000
  C   C8        1.0  0.0420149225225117  0.1809310089980869  0.31930265740573566  1.0000
  C   C9        1.0  0.19731930350696558  0.07570523900876941  0.4212573411252266  1.0000
  C   C10       1.0  0.8026904862880712  0.9242974919427951  0.5787431110822469  1.0000
  C   C11       1.0  0.6973307260978812  0.42433328251055275  0.07876085978625011  1.0000
  C   C12       1.0  0.3026686115571379  0.5756806080766027  0.9212505954589504  1.0000
  C   C13       1.0  0.2107134678996019  0.11537218735085024  0.38206001466848966  1.0000
  C   C14       1.0  0.7892933408082426  0.884630494985025  0.6179400297560776  1.0000
  C   C15       1.0  0.7107312834333539  0.3846659601326223  0.117954639928989  1.0000
  C   C16       1.0  0.28926805287221663  0.6153489226954248  0.8820576300370748  1.0000
  C   C17       1.0  0.03447669292616949  0.13925055351833748  0.3626673565546881  1.0000
  C   C18       1.0  0.9655241581544016  0.8607469161418352  0.637330247626366  1.0000
  C   C19       1.0  0.5345058989419869  0.3607485766875414  0.1373273021539347  1.0000
  C   C20       1.0  0.46549494445257966  0.6392547975778982  0.8626747823112454  1.0000
  C   C21       1.0  0.8495978316496247  0.1230705252881208  0.3834241831130996  1.0000
  C   C22       1.0  0.15040451557769066  0.8769229752962956  0.6165701620554884  1.0000
  C   C23       1.0  0.34966144284437206  0.37689450222633514  0.11655629920377922  1.0000
  C   C24       1.0  0.6503453790646461  0.6230974608200625  0.8834364154553853  1.0000
  C   C25       1.0  0.8393324680005987  0.08342057396772869  0.4229109743561352  1.0000
  C   C26       1.0  0.16067584195846507  0.9165733734482587  0.5770833696156926  1.0000
  C   C27       1.0  0.3393917399406731  0.41654764166788283  0.077070058720949  1.0000
  C   C28       1.0  0.6606135906913336  0.5834452160514445  0.9229226547061131  1.0000
  C   C29       1.0  0.0144033658601828  0.0583308674925718  0.44294280317026147  1.0000
  C   C30       1.0  0.9856064282472371  0.9416684394559527  0.5570552055552228  1.0000
  C   C31       1.0  0.5144452765227782  0.441674951496637  0.05705981339563241  1.0000
  C   C32       1.0  0.48555705627128276  0.558329414897493  0.9429430856613621  1.0000
  C   C33       1.0  0.0060479849890456  0.017586867913500694  0.4827649318998297  1.0000
  C   C34       1.0  0.9939647888561253  0.982413479891605  0.5172342993294166  1.0000
  C   C35       1.0  0.5060684953036727  0.4824184778182  0.017235870789512803  1.0000
  C   C36       1.0  0.4939368187242507  0.517586335631897  0.982767027328812  1.0000
  C   C37       1.0  0.9248865185787594  0.024411953054510598  0.9557498947233541  1.0000
  C   C38       1.0  0.0751068762048419  0.9755879000887121  0.044248930823059106  1.0000
  C   C39       1.0  0.43166169476192107  0.4753421427653138  0.544881257834362  1.0000
  C   C40       1.0  0.5683346808155605  0.5246569621130348  0.45511879293811563  1.0000
  C   C41       1.0  0.1244908490494936  0.044149917160069704  0.9854771763084998  1.0000
  C   C42       1.0  0.8755040367470883  0.9558494885905942  0.014521649789443803  1.0000
  C   C43       1.0  0.6297104883049228  0.45677787315467816  0.5137755894833801  1.0000
  C   C44       1.0  0.37028588768325216  0.5432211828835917  0.486224053248101  1.0000
  C   C45       1.0  0.04106820387222138  0.1285865139267628  0.12626509373597367  1.0000
  C   C46       1.0  0.9589237003090928  0.8714137377689398  0.8737333232179126  1.0000
  C   C47       1.0  0.5403025544197675  0.37137042620270944  0.37370896584415203  1.0000
  C   C48       1.0  0.4596938211577139  0.6286286786756393  0.626291084928326  1.0000
  C   C49       1.0  0.8205159646185792  0.023162101816254204  0.012015882572058  1.0000
  C   C50       1.0  0.17947743083974638  0.9768372552065187  0.9879825356139307  1.0000
  C   C51       1.0  0.321386123682025  0.4756234091604838  0.48938140449641315  1.0000
  C   C52       1.0  0.6786087605891635  0.5243753462298599  0.5106194631676929  1.0000
  C   C53       1.0  0.0185391854806554  0.04458206362215831  0.043251584597577206  1.0000
  C   C54       1.0  0.9814527189646894  0.9554177407931801  0.9567468330368882  1.0000
  C   C55       1.0  0.5179495754098935  0.45532809980075234  0.45677826712309877  1.0000
  C   C56       1.0  0.48204680031424363  0.5446714035178745  0.5432213749278034  1.0000
  C   C57       1.0  0.0340327898854937  0.0897149172862157  0.08772816527550728  1.0000
  C   C58       1.0  0.9659620964684378  0.9102848380646478  0.9122698440598642  1.0000
  C   C59       1.0  0.5330983300774789  0.41020202952318396  0.41227779808233583  1.0000
  C   C60       1.0  0.4668980452359718  0.5897975226355285  0.58772225200957  1.0000
  O   O1        1.0  0.6254179869441927  0.6976852836022688  0.8018367023333896  1.0000
  O   O2        1.0  0.3745783909507806  0.3023131297953086  0.1981613089146492  1.0000
  O   O3        1.0  0.1254171500084809  0.8023435131061091  0.6981827594335  1.0000
  O   O4        1.0  0.8745836998692977  0.19765534723523362  0.3018152507468344  1.0000
  O   O5        1.0  0.2867618009049906  0.6906657552191503  0.6913583030994489  1.0000
  O   O6        1.0  0.7132390458046346  0.309332650122208  0.30864338081104137  1.0000
  O   O7        1.0  0.7863761938388122  0.8093646081194094  0.8086658686454625  1.0000
  O   O8        1.0  0.2136186923391747  0.1906335046302488  0.19133336753520785  1.0000
  O   O9        1.0  0.2865772549930696  0.6955804184644806  0.8026357160132777  1.0000
  O   O10       1.0  0.7134191155973043  0.30442260653735076  0.19736718560161387  1.0000
  O   O11       1.0  0.7865771585832348  0.8044267005002581  0.6973811436028043  1.0000
  O   O12       1.0  0.21342368927037103  0.19557364820242637  0.30261808865881074  1.0000
  O   O13       1.0  0.1258227463264916  0.8074638164564194  0.8095377583044935  1.0000
  O   O14       1.0  0.8741706484863909  0.19253728084773059  0.1904602491182033  1.0000
  O   O15       1.0  0.6262169012244954  0.6925591340337364  0.6905007893708162  1.0000
  O   O16       1.0  0.37378543767137257  0.30744201143730976  0.3094976253186061  1.0000
  O   O17       1.0  0.4548463846680235  0.7864080510488024  0.7522382193535506  1.0000
  O   O18       1.0  0.5451514823624137  0.21359180175782908  0.24776060580573042  1.0000
  O   O19       1.0  0.9549488964774824  0.7136173900858226  0.7477853468639495  1.0000
  O   O20       1.0  0.0450504613018978  0.2863824626086143  0.2522134781662828  1.0000
  F   F1        1.0  0.36771747645361325  0.051764853878509584  0.43998292309065323  1.0000
  F   F2        1.0  0.6322967780489178  0.9482441797820016  0.560021600292238  1.0000
  F   F3        1.0  0.8677102231415146  0.4483109783200374  0.06005710533589341  1.0000
  F   F4        1.0  0.1322876064564724  0.5517141200696044  0.9399657602137736  1.0000
  F   F5        1.0  0.3623591967550652  0.9523223712681244  0.9751393763591736  1.0000
  F   F6        1.0  0.6376356886308228  0.04767708332262541  0.024859857779773602  1.0000
  F   F7        1.0  0.8608344718875995  0.5500867218845541  0.5219097414850394  1.0000
  F   F8        1.0  0.1391619034258511  0.44991283027415824  0.4780903086068662  1.0000
