data_image0
_chemical_formula_structural       Ni4H36C16N4O24
_chemical_formula_sum              "Ni4 H36 C16 N4 O24"
_cell_length_a       7.529770915014617
_cell_length_b       8.780446005038005
_cell_length_c       11.819380581023676
_cell_angle_alpha    90.00023659178544
_cell_angle_beta     90.00003482389998
_cell_angle_gamma    90.00022653746493

_space_group_name_H-M_alt    "P 1"
_space_group_IT_number       1

loop_
  _space_group_symop_operation_xyz
  'x, y, z'

loop_
  _atom_site_type_symbol
  _atom_site_label
  _atom_site_symmetry_multiplicity
  _atom_site_fract_x
  _atom_site_fract_y
  _atom_site_fract_z
  _atom_site_occupancy
  Ni  Ni1       1.0  0.898235740049124  0.9317106201925469  0.9240771801823939  1.0000
  Ni  Ni2       1.0  0.10176423384995564  0.5682902017906101  0.42407560475545136  1.0000
  Ni  Ni3       1.0  0.6017577321930931  0.4317082035374824  0.0759252725668347  1.0000
  Ni  Ni4       1.0  0.3982409337116267  0.06829258146186849  0.5759237781267714  1.0000
  H   H1        1.0  0.12065293732124623  0.9399294216738168  0.7578466532284693  1.0000
  H   H2        1.0  0.8793508833382336  0.5600636789507973  0.2578386243636572  1.0000
  H   H3        1.0  0.37934733536926063  0.43993565001806456  0.2421606826685974  1.0000
  H   H4        1.0  0.6206581082615232  0.0600705785598521  0.7421524910973218  1.0000
  H   H5        1.0  0.19630171298558002  0.8089307364566808  0.8436665252531694  1.0000
  H   H6        1.0  0.8036942102464054  0.6910639614954944  0.3436614188988969  1.0000
  H   H7        1.0  0.30369130414757717  0.30893511573029286  0.15633616278830686  1.0000
  H   H8        1.0  0.6963087562991676  0.19107179328432264  0.6563334983503707  1.0000
  H   H9        1.0  0.06211006238080332  0.7050970453317192  0.6663617765449741  1.0000
  H   H10       1.0  0.9378843862496924  0.7949046777471055  0.1663595982400778  1.0000
  H   H11       1.0  0.4378824670725266  0.20509370709196867  0.3336388884157131  1.0000
  H   H12       1.0  0.5621203960330663  0.29490389901636865  0.8336398802907184  1.0000
  H   H13       1.0  0.9299367963192327  0.49056408113692374  0.7607836629345356  1.0000
  H   H14       1.0  0.0700580382018074  0.009435413576490194  0.2607895006276024  1.0000
  H   H15       1.0  0.5700516400817935  0.9905617473561817  0.2392105167075727  1.0000
  H   H16       1.0  0.42993888457408513  0.5094358093158461  0.7392190014195918  1.0000
  H   H17       1.0  0.11723096791592275  0.5501191333111778  0.8371928289962726  1.0000
  H   H18       1.0  0.8827569815915413  0.9498721133925727  0.33719873502674597  1.0000
  H   H19       1.0  0.3827528653263813  0.0501260880167251  0.16280141956669067  1.0000
  H   H20       1.0  0.6172405601718439  0.4498854111321435  0.6628105441758194  1.0000
  H   H21       1.0  0.8103097171808858  0.20816748796502793  0.918943759221861  1.0000
  H   H22       1.0  0.189701184833453  0.2918419627824633  0.4189429348681912  1.0000
  H   H23       1.0  0.6897066102707541  0.7081578740607384  0.081057981058045  1.0000
  H   H24       1.0  0.310303704565726  0.7918342822050662  0.5810546222842277  1.0000
  H   H25       1.0  0.009111343605582103  0.20503406255279094  0.8691084795056411  1.0000
  H   H26       1.0  0.9909008452479714  0.29496373302755785  0.36910294039026326  1.0000
  H   H27       1.0  0.4909064187464623  0.7050393838169525  0.1308989538178622  1.0000
  H   H28       1.0  0.5091079215118341  0.7949701221031661  0.630891461932883  1.0000
  H   H29       1.0  0.17790399083542505  0.910628464336966  0.06237870149940509  1.0000
  H   H30       1.0  0.8220863876244452  0.5893590365305101  0.5623732299266706  1.0000
  H   H31       1.0  0.32208551975612926  0.41063821726331173  0.9376276949466842  1.0000
  H   H32       1.0  0.6779041487041938  0.0893679165493211  0.43761797890176973  1.0000
  H   H33       1.0  0.18456794160838544  0.06952220610971692  0.9926968429361904  1.0000
  H   H34       1.0  0.8154297406992372  0.43046599958030635  0.4926874283423003  1.0000
  H   H35       1.0  0.31542660727375704  0.5695342555994573  0.007314388838047099  1.0000
  H   H36       1.0  0.6845677099047268  0.9304757289900112  0.5072997912359013  1.0000
  C   C1        1.0  0.8040770719102498  0.7873516366609721  0.71578936455807  1.0000
  C   C2        1.0  0.1959214017369676  0.7126366837744484  0.21580436582542717  1.0000
  C   C3        1.0  0.6959183784822545  0.2873597570643581  0.2841948606877907  1.0000
  C   C4        1.0  0.3040844437922773  0.2126512516985244  0.7842132445571153  1.0000
  C   C5        1.0  0.9910109248167986  0.7306373672836485  0.7451808723712289  1.0000
  C   C6        1.0  0.008988901200197604  0.7693590823839215  0.2451824352668694  1.0000
  C   C7        1.0  0.5089842592068835  0.2306401531369034  0.2548167091982804  1.0000
  C   C8        1.0  0.4910198668234926  0.26936386529030903  0.7548209727263993  1.0000
  C   C9        1.0  0.9804790771535681  0.5827259136163223  0.8143179291880427  1.0000
  C   C10       1.0  0.019515493767549703  0.9172720442547231  0.3143182759859826  1.0000
  C   C11       1.0  0.5195114280045703  0.08272608739662252  0.18568002703004535  1.0000
  C   C12       1.0  0.4804860005618183  0.417274145020869  0.6856856034204739  1.0000
  C   C13       1.0  0.872276640276205  0.5883009124544928  0.923344778395311  1.0000
  C   C14       1.0  0.1277153646267379  0.9116896555752446  0.42335107738318806  1.0000
  C   C15       1.0  0.6277099068906937  0.0883065583088438  0.07664727312273809  1.0000
  C   C16       1.0  0.37228211933825867  0.41170789729125795  0.5766544763923136  1.0000
  N   N1        1.0  0.08163297187215333  0.8515729357470079  0.8097028592612148  1.0000
  N   N2        1.0  0.9183695636098084  0.6484284141523274  0.3096976673451124  1.0000
  N   N3        1.0  0.4183668858291513  0.3515721835405898  0.190300810748198  1.0000
  N   N4        1.0  0.5816385149248192  0.1484292124388134  0.6902954218726265  1.0000
  O   O1        1.0  0.7272608890715091  0.8732220528883302  0.7872221619303231  1.0000
  O   O2        1.0  0.2727456120295032  0.6267860102980832  0.2872183097711343  1.0000
  O   O3        1.0  0.7727402768272926  0.37321182505341  0.2127801043969981  1.0000
  O   O4        1.0  0.22726115830122506  0.126780579843512  0.7127736449209863  1.0000
  O   O5        1.0  0.7324452728572555  0.7450766510225931  0.622732797462639  1.0000
  O   O6        1.0  0.26755976418682803  0.7549191445250186  0.12272427501690687  1.0000
  O   O7        1.0  0.767556619288307  0.2450775346759215  0.3772724447375352  1.0000
  O   O8        1.0  0.23245026407581557  0.25492372119478557  0.8772689341379163  1.0000
  O   O9        1.0  0.8710936460708045  0.709088786490142  0.9840351222805096  1.0000
  O   O10       1.0  0.12890372127174032  0.7909146335667502  0.4840342682974493  1.0000
  O   O11       1.0  0.6288961244916678  0.20908727873268873  0.0159615445346333  1.0000
  O   O12       1.0  0.3711064760240107  0.29090976927145107  0.5159599016329963  1.0000
  O   O13       1.0  0.7909272792770637  0.4674288578590336  0.9506116482744883  1.0000
  O   O14       1.0  0.20905841572532324  0.032571650884968106  0.4506210049912767  1.0000
  O   O15       1.0  0.7090517520481968  0.9674316670347239  0.049381611570574094  1.0000
  O   O16       1.0  0.2909439279427844  0.5325648756091181  0.5493918011242016  1.0000
  O   O17       1.0  0.8901127966382136  0.1559366429937086  0.8643714597398073  1.0000
  O   O18       1.0  0.10990735665792074  0.34405543283448037  0.3643699207306028  1.0000
  O   O19       1.0  0.6099085977944158  0.6559429996131813  0.1356351905078981  1.0000
  O   O20       1.0  0.3901123866935451  0.8440688094140254  0.6356303410742612  1.0000
  O   O21       1.0  0.10885858222984272  0.0036561362744578  0.0390985253478817  1.0000
  O   O22       1.0  0.8911334128947036  0.49633306301958413  0.5390867665498433  1.0000
  O   O23       1.0  0.391135657312404  0.5036689761124007  0.9609175729114341  1.0000
  O   O24       1.0  0.6088577067433434  0.9963400148778164  0.460901509018008  1.0000
