data_image0
_chemical_formula_structural       Ca2H28C24N8O12
_chemical_formula_sum              "Ca2 H28 C24 N8 O12"
_cell_length_a       7.781562113880035
_cell_length_b       8.702023177642381
_cell_length_c       11.93959377069609
_cell_angle_alpha    81.95098632250317
_cell_angle_beta     78.08158483748909
_cell_angle_gamma    69.00082344804397

_space_group_name_H-M_alt    "P 1"
_space_group_IT_number       1

loop_
  _space_group_symop_operation_xyz
  'x, y, z'

loop_
  _atom_site_type_symbol
  _atom_site_label
  _atom_site_symmetry_multiplicity
  _atom_site_fract_x
  _atom_site_fract_y
  _atom_site_fract_z
  _atom_site_occupancy
  Ca  Ca1       1.0  0.2257463272543774  0.5223055999642907  0.0559296138707523  1.0000
  Ca  Ca2       1.0  0.7742472997731865  0.4776965781220568  0.9440702881849748  1.0000
  H   H1        1.0  0.13128363685060407  0.6060827338719078  0.8378815228588936  1.0000
  H   H2        1.0  0.8687129909118381  0.3939219249807237  0.16211607024376212  1.0000
  H   H3        1.0  0.9592680872330204  0.7436232299864611  0.9037054676076296  1.0000
  H   H4        1.0  0.040725897418091996  0.25638147453289406  0.09629080097059271  1.0000
  H   H5        1.0  0.5175721706412019  0.21332901575002686  0.9906221920147691  1.0000
  H   H6        1.0  0.48241929242198  0.7866719414944112  0.009378114198334203  1.0000
  H   H7        1.0  0.3411968306718691  0.14884968305792506  0.037704717657739195  1.0000
  H   H8        1.0  0.6587949956530961  0.8511537843704318  0.9622927934539619  1.0000
  H   H9        1.0  0.5304328543839246  0.327029635959228  0.45453134698041714  1.0000
  H   H10       1.0  0.4695781313759184  0.6729614026885143  0.5454655845507049  1.0000
  H   H11       1.0  0.9672883725424267  0.39390305596513997  0.3111182929558256  1.0000
  H   H12       1.0  0.03271876443559308  0.6060842744901435  0.6888811755718651  1.0000
  H   H13       1.0  0.030170565447846794  0.11042402242520667  0.5453400082927758  1.0000
  H   H14       1.0  0.9698324001633692  0.8895743003805022  0.4546648615011933  1.0000
  H   H15       1.0  0.8486369460113818  0.27875063074971956  0.49110413345652415  1.0000
  H   H16       1.0  0.15136770441727515  0.7212501794065389  0.5088986034982527  1.0000
  H   H17       1.0  0.9371792244553628  0.2964962669642261  0.6141478226119476  1.0000
  H   H18       1.0  0.06283247906917924  0.7035032600111321  0.38585492407911204  1.0000
  H   H19       1.0  0.8535095100074912  0.14691938522135217  0.22692141645639916  1.0000
  H   H20       1.0  0.14648898923689999  0.8530803375894608  0.7730763843646786  1.0000
  H   H21       1.0  0.7422288395042  0.6378757644138346  0.2152594521425827  1.0000
  H   H22       1.0  0.257767101202262  0.3621237603273072  0.7847495997956175  1.0000
  H   H23       1.0  0.3868764401972057  0.9374426294494141  0.39854129283480694  1.0000
  H   H24       1.0  0.6131170934981043  0.06256326033311407  0.6014574389421201  1.0000
  H   H25       1.0  0.4361355534907431  0.7548774214440427  0.32639461038422724  1.0000
  H   H26       1.0  0.5638601441689486  0.24512968918040198  0.673603717235324  1.0000
  H   H27       1.0  0.33685570240685786  0.9541869750034022  0.2578231872374986  1.0000
  H   H28       1.0  0.6631417846789772  0.04581887877721869  0.7421758545738797  1.0000
  C   C1        1.0  0.5477864587210346  0.42736836384361254  0.22521642508083062  1.0000
  C   C2        1.0  0.4522164674225947  0.5726300727057491  0.774782576080412  1.0000
  C   C3        1.0  0.38798267286778554  0.39564345578641263  0.30844951500057505  1.0000
  C   C4        1.0  0.6120229784429653  0.6043512558982229  0.6915503042116954  1.0000
  C   C5        1.0  0.4045167595660145  0.33805418812447385  0.4226912471643163  1.0000
  C   C6        1.0  0.5954924649588093  0.6619380261216177  0.5773091620554995  1.0000
  C   C7        1.0  0.11888664215567249  0.30603257981922377  0.4535914791040058  1.0000
  C   C8        1.0  0.8811217343221995  0.6939584070006858  0.5464091581592997  1.0000
  C   C9        1.0  0.09660887834380107  0.3741523218264788  0.34172248647992387  1.0000
  C   C10       1.0  0.9033991235958466  0.6258361873077047  0.658279269132585  1.0000
  C   C11       1.0  0.9743216727248122  0.24557225346602957  0.5299181308606509  1.0000
  C   C12       1.0  0.025681287248176005  0.7544260855887684  0.4700859005572085  1.0000
  C   C13       1.0  0.14633926663551472  0.9166463667265106  0.1005104508339869  1.0000
  C   C14       1.0  0.8536556650330311  0.08335583727374997  0.8994875983556485  1.0000
  C   C15       1.0  0.9632394153850041  0.903569041730563  0.16335851711654212  1.0000
  C   C16       1.0  0.036759089497607485  0.09643066483115349  0.8366401220806381  1.0000
  C   C17       1.0  0.8266110486828777  0.0343185764733178  0.22049832360826835  1.0000
  C   C18       1.0  0.17338482436487368  0.965681143256944  0.7795006678166843  1.0000
  C   C19       1.0  0.6255673059122129  0.8890618404926653  0.2655968942983621  1.0000
  C   C20       1.0  0.3744284963561809  0.110941525937406  0.7344042803522017  1.0000
  C   C21       1.0  0.767388506935674  0.7534653773681085  0.21339757504097187  1.0000
  C   C22       1.0  0.23260825362660137  0.2465354560446825  0.7866070569732176  1.0000
  C   C23       1.0  0.43576710822921416  0.8822095913198139  0.31553854710116275  1.0000
  C   C24       1.0  0.5642325428210029  0.11779748330272345  0.6844600905528325  1.0000
  N   N1        1.0  0.23069964639081764  0.4170500259436734  0.2690569595881059  1.0000
  N   N2        1.0  0.7693082622165761  0.5829421948866909  0.7309436257455958  1.0000
  N   N3        1.0  0.2729003441007407  0.2923692444795235  0.4946429061520379  1.0000
  N   N4        1.0  0.7271066287656679  0.70762544437175  0.5053575753224565  1.0000
  N   N5        1.0  0.9342015314019677  0.7598253645596739  0.1620765840839056  1.0000
  N   N6        1.0  0.06579746390404041  0.24017304299521666  0.8379254605472968  1.0000
  N   N7        1.0  0.657950681257965  0.029016206970389598  0.27030385844783933  1.0000
  N   N8        1.0  0.3420437938165434  0.9709871985421399  0.7296958155644052  1.0000
  O   O1        1.0  0.5292491670550561  0.4642547347701935  0.12054353439062031  1.0000
  O   O2        1.0  0.4707484133630331  0.5357474073142469  0.8794566776995583  1.0000
  O   O3        1.0  0.6922325869288598  0.4111455954841715  0.26632076923809933  1.0000
  O   O4        1.0  0.3077733286731925  0.5888553543296524  0.733674246217852  1.0000
  O   O5        1.0  0.2616779547512067  0.7893446798818642  0.05224131099463851  1.0000
  O   O6        1.0  0.738318298473004  0.2106575012850341  0.9477574004572207  1.0000
  O   O7        1.0  0.1747188405912182  0.051717781749133  0.09977043856568461  1.0000
  O   O8        1.0  0.825275623206835  0.948285656261582  0.9002275586943543  1.0000
  O   O9        1.0  0.02698199767068842  0.6218987290750488  0.906362995763857  1.0000
  O   O10       1.0  0.9730150979622394  0.3781046957671278  0.09363464926840952  1.0000
  O   O11       1.0  0.3786856230684208  0.24623640008989153  0.0098005736556033  1.0000
  O   O12       1.0  0.62130529006847  0.7537694703629895  0.9902001871013016  1.0000
