data_image0
_chemical_formula_structural       Sm6CoH36C20S6N8O54
_chemical_formula_sum              "Sm6 Co1 H36 C20 S6 N8 O54"
_cell_length_a       6.570602373569904
_cell_length_b       9.413250608901016
_cell_length_c       21.619
_cell_angle_alpha    97.14026568413621
_cell_angle_beta     94.43713357872326
_cell_angle_gamma    97.99093996525384

_space_group_name_H-M_alt    "P 1"
_space_group_IT_number       1

loop_
  _space_group_symop_operation_xyz
  'x, y, z'

loop_
  _atom_site_type_symbol
  _atom_site_label
  _atom_site_symmetry_multiplicity
  _atom_site_fract_x
  _atom_site_fract_y
  _atom_site_fract_z
  _atom_site_occupancy
  Sm  Sm1       1.0  0.3525701561173662  0.0069014986180633  0.8629260947660455  1.0000
  Sm  Sm2       1.0  0.647427992697132  0.9930999857510231  0.1370717217736086  1.0000
  Sm  Sm3       1.0  0.07694426610285635  0.8746049472625829  0.6797631854677775  1.0000
  Sm  Sm4       1.0  0.9230576316719876  0.1253997858897833  0.3202358201643278  1.0000
  Sm  Sm5       1.0  0.3378158441283858  0.2873895349534266  0.577630593674563  1.0000
  Sm  Sm6       1.0  0.6621886426918593  0.7126130323434126  0.42237113095161755  1.0000
  Co  Co1       1.0  0.9999999735040745  0.4999974934012599  0.999999586182078  1.0000
  H   H1        1.0  0.5787874388932579  0.6190112542870096  0.6930106075065084  1.0000
  H   H2        1.0  0.4212207968873329  0.3809945617931163  0.3069923062121235  1.0000
  H   H3        1.0  0.8365636190028807  0.2678654303582562  0.8583173577784677  1.0000
  H   H4        1.0  0.1634301822775512  0.732137136938583  0.14168226537009332  1.0000
  H   H5        1.0  0.5736761357066769  0.6363175228285485  0.8117191992049229  1.0000
  H   H6        1.0  0.4263278871475791  0.3636828786127708  0.18828378496041154  1.0000
  H   H7        1.0  0.9174113874322458  0.3809371666218055  0.7605537283163245  1.0000
  H   H8        1.0  0.08258629741627742  0.6190621518917538  0.2394448852064031  1.0000
  H   H9        1.0  0.1008667690290395  0.5186390118715707  0.644262958396574  1.0000
  H   H10       1.0  0.8991273988421327  0.4813581407864689  0.3557373054347508  1.0000
  H   H11       1.0  0.04787169047081362  0.502287885614848  0.57142004060956  1.0000
  H   H12       1.0  0.9521237719230555  0.4977081841154316  0.4285797324944554  1.0000
  H   H13       1.0  0.1992588151458961  0.963494906632782  0.5296689682932226  1.0000
  H   H14       1.0  0.8007399322423295  0.0365022460252575  0.47033094066199516  1.0000
  H   H15       1.0  0.3124376218881366  0.0263021494485258  0.4747915388655954  1.0000
  H   H16       1.0  0.687569221994508  0.9736971690650336  0.5252068274609982  1.0000
  H   H17       1.0  0.2931624858738715  0.771169102212511  0.5635133947211983  1.0000
  H   H18       1.0  0.7068400104747  0.2288312992288084  0.43648585310214133  1.0000
  H   H19       1.0  0.049976968101347594  0.7480410140301927  0.5448135884531595  1.0000
  H   H20       1.0  0.9500224752358477  0.2519593874111266  0.455186512695697  1.0000
  H   H21       1.0  0.5592453538848261  0.8606741645507157  0.7090684821911282  1.0000
  H   H22       1.0  0.44075233096369704  0.1393251539628508  0.2909305938876869  1.0000
  H   H23       1.0  0.5237538014213924  0.9276066806477629  0.6492642895014242  1.0000
  H   H24       1.0  0.4762448113590949  0.0723969695768432  0.35073596794774187  1.0000
  H   H25       1.0  0.052140496171738  0.0741935467316139  0.953267750394403  1.0000
  H   H26       1.0  0.9478617681938458  0.9258057717819456  0.0467318959204732  1.0000
  H   H27       1.0  0.22996903737767133  0.20547363036124724  0.9798333500453467  1.0000
  H   H28       1.0  0.7700347534936042  0.7945256881523122  0.020167257275019803  1.0000
  H   H29       1.0  0.6898857992395263  0.1656132253504836  0.9646445504252272  1.0000
  H   H30       1.0  0.3101136440976759  0.8343871760908357  0.03535508816754881  1.0000
  H   H31       1.0  0.6776819781688133  0.0011565668482802  0.9743051664755384  1.0000
  H   H32       1.0  0.3223159386626975  0.9988438345930392  0.025694898779988817  1.0000
  H   H33       1.0  0.6473788715186615  0.5815332903494834  0.03494715304155699  1.0000
  H   H34       1.0  0.3526246873696194  0.4184649452363162  0.9650533902142656  1.0000
  H   H35       1.0  0.6336254963602882  0.5809225190925248  0.9612936088309851  1.0000
  H   H36       1.0  0.36637630403931337  0.4190746335655149  0.03870775957913251  1.0000
  C   C1        1.0  0.29904903204904804  0.167254943835502  0.7212366455118229  1.0000
  C   C2        1.0  0.7009488847824629  0.8327454576058244  0.27876295718762384  1.0000
  C   C3        1.0  0.3971221437743608  0.318458732403947  0.7395756525592887  1.0000
  C   C4        1.0  0.6028729520287683  0.6815427519651323  0.2604257926423871  1.0000
  C   C5        1.0  0.45016936068961394  0.4082009559217141  0.7966027693148376  1.0000
  C   C6        1.0  0.5498285561418967  0.5917994455196123  0.20339868360894545  1.0000
  C   C7        1.0  0.438667685521942  0.3861059808229684  0.8626696977697963  1.0000
  C   C8        1.0  0.5613264823492301  0.6138911718350712  0.1373310286176093  1.0000
  C   C9        1.0  0.5212573300724372  0.5309172468208204  0.7178734805627371  1.0000
  C   C10       1.0  0.47874891523647994  0.4690864034037787  0.28212880657739003  1.0000
  C   C11       1.0  0.1808454623168814  0.7105283964043281  0.9352855484673485  1.0000
  C   C12       1.0  0.819159159111109  0.2894676733259445  0.06471443999662091  1.0000
  C   C13       1.0  0.06862101377569021  0.5998326036474566  0.8866955117513271  1.0000
  C   C14       1.0  0.9313855981239668  0.4001656319383429  0.11330417817897141  1.0000
  C   C15       1.0  0.05095915503267891  0.5765940568335638  0.8214094874321276  1.0000
  C   C16       1.0  0.9490389937818264  0.4234074275355226  0.17859064188795062  1.0000
  C   C17       1.0  0.10805300383624686  0.6680743794070241  0.7726833649951246  1.0000
  C   C18       1.0  0.8919469034669304  0.3319281878898153  0.2273168642828267  1.0000
  C   C19       1.0  0.9126596245213533  0.3782233496538367  0.8588371452191694  1.0000
  C   C20       1.0  0.0873382923101573  0.6217770517874825  0.1411624574802701  1.0000
  S   S1        1.0  0.6782799892834319  0.6402940335653327  0.5643121334182766  1.0000
  S   S2        1.0  0.32171815953106625  0.3597074508037537  0.43568799590180174  1.0000
  S   S3        1.0  0.8348780488883777  0.1745213891088682  0.6287528732279455  1.0000
  S   S4        1.0  0.16512620594887298  0.825480095260211  0.3712455494410919  1.0000
  S   S5        1.0  0.7749686422963292  0.9386059779117845  0.8160602255350328  1.0000
  S   S6        1.0  0.22503080104087297  0.0613944235295349  0.18393802538948023  1.0000
  N   N1        1.0  0.4414289619331058  0.3976705663780109  0.691509832323753  1.0000
  N   N2        1.0  0.5585724718757632  0.6023320009188354  0.3084927456279446  1.0000
  N   N3        1.0  0.5264648963241996  0.5416804658330464  0.7809721790401343  1.0000
  N   N4        1.0  0.4735404210527604  0.4583188526805131  0.219030314397898  1.0000
  N   N5        1.0  0.9798452278644803  0.4768867320631074  0.909032091490012  1.0000
  N   N6        1.0  0.02015375150674002  0.5231115035226921  0.09096788152974972  1.0000
  N   N7        1.0  0.9521752693101888  0.43574630643936274  0.8058431263253284  1.0000
  N   N8        1.0  0.04782264752132191  0.5642540950019566  0.1941560138180307  1.0000
  O   O1        1.0  0.8355670431530556  0.629365126605741  0.5168727161766995  1.0000
  O   O2        1.0  0.1644304097124802  0.3706331089800585  0.4831267583936524  1.0000
  O   O3        1.0  0.587381376727393  0.4940922883229177  0.5738990122589414  1.0000
  O   O4        1.0  0.4126241726325546  0.5059081131184087  0.4261030826875541  1.0000
  O   O5        1.0  0.7853218981644755  0.717355173006915  0.6243574224863836  1.0000
  O   O6        1.0  0.21467259906493297  0.282650643073211  0.3756433179679917  1.0000
  O   O7        1.0  0.5229009725549076  0.7226528556115852  0.5374871038628157  1.0000
  O   O8        1.0  0.4770964803106211  0.27734537997422143  0.46251052048319974  1.0000
  O   O9        1.0  0.9832358527080627  0.2128364562053093  0.5828009969482366  1.0000
  O   O10       1.0  0.016766179674533508  0.7871617793804901  0.41719627252166447  1.0000
  O   O11       1.0  0.8444918685301133  0.0215199404578854  0.6414332371494282  1.0000
  O   O12       1.0  0.15550498576169505  0.9784826268389538  0.3585673828979524  1.0000
  O   O13       1.0  0.8747433473740784  0.2756126955573208  0.6869302845804057  1.0000
  O   O14       1.0  0.12527487799734874  0.7243898717395254  0.31306760008093454  1.0000
  O   O15       1.0  0.6240834286146679  0.170761463924201  0.5969320759147793  1.0000
  O   O16       1.0  0.3759206916148372  0.8292465180114448  0.40306900802863777  1.0000
  O   O17       1.0  0.2719374969873982  0.121424358080759  0.662601365381704  1.0000
  O   O18       1.0  0.728057598815731  0.8785771262883202  0.33739776703954766  1.0000
  O   O19       1.0  0.2355412957561995  0.082959846953365  0.7603072198902083  1.0000
  O   O20       1.0  0.7644482925979048  0.9170373057046747  0.23969154859288724  1.0000
  O   O21       1.0  0.40160569425243137  0.2583096757990617  0.876040400491249  1.0000
  O   O22       1.0  0.5983921252038371  0.7416831451479384  0.12395878964969852  1.0000
  O   O23       1.0  0.464343165120802  0.4989221461350226  0.9030569960591635  1.0000
  O   O24       1.0  0.535649610852424  0.5010685089564575  0.09694519616530782  1.0000
  O   O25       1.0  0.2877138920245912  0.8237918108814952  0.9245287885697309  1.0000
  O   O26       1.0  0.7122975313751141  0.1762075076320642  0.07547014799292381  1.0000
  O   O27       1.0  0.1692656522775096  0.6786838226772502  0.9919497619428553  1.0000
  O   O28       1.0  0.8307376746277837  0.3213133299807893  0.00804979213624789  1.0000
  O   O29       1.0  0.21034283800957349  0.7959075039747887  0.7870207311796662  1.0000
  O   O30       1.0  0.7896573012765984  0.2040961462498103  0.2129790996067413  1.0000
  O   O31       1.0  0.046366914127162324  0.6198104549742993  0.7158713591454315  1.0000
  O   O32       1.0  0.9536297081816514  0.38019102939478  0.28412919683739807  1.0000
  O   O33       1.0  0.6637734721157926  0.0645749823623021  0.809170465668366  1.0000
  O   O34       1.0  0.3362226862270461  0.9354243361512574  0.1908281119610393  1.0000
  O   O35       1.0  0.6360013719061114  0.8326490770351356  0.8453461511572513  1.0000
  O   O36       1.0  0.36399913397079325  0.167349158550671  0.15465061986324  1.0000
  O   O37       1.0  0.8086009539337696  0.8686380153018831  0.7519989868241339  1.0000
  O   O38       1.0  0.1913954363920567  0.1313623861394362  0.24799965486981534  1.0000
  O   O39       1.0  0.9749500727875073  0.9858367892609295  0.8542775554140363  1.0000
  O   O40       1.0  0.025048539992980096  0.014166860963669602  0.1457199266986251  1.0000
  O   O41       1.0  0.16091705179342597  0.505579986006957  0.6039449940583667  1.0000
  O   O42       1.0  0.8390780440097032  0.4944214983621293  0.3960550634750605  1.0000
  O   O43       1.0  0.24892652378476748  0.05423193932117701  0.5128309690267372  1.0000
  O   O44       1.0  0.7510903096887205  0.9457641304091027  0.48717023169600543  1.0000
  O   O45       1.0  0.1656672051947368  0.815257257200507  0.5705875040358421  1.0000
  O   O46       1.0  0.8343330686991733  0.1847398954575326  0.4294129033687852  1.0000
  O   O47       1.0  0.4475451442497018  0.8690343668622519  0.6768722967575159  1.0000
  O   O48       1.0  0.5524525405988214  0.1309649516513076  0.32312677932129935  1.0000
  O   O49       1.0  0.20045142580268296  0.0973324641915383  0.9660849766274567  1.0000
  O   O50       1.0  0.7995508385629009  0.9026668543220212  0.03391374457525131  1.0000
  O   O51       1.0  0.6395882548711638  0.0655831881073894  0.9438920272849032  1.0000
  O   O52       1.0  0.3604083674376497  0.9344182962616969  0.0561085286979335  1.0000
  O   O53       1.0  0.7234327167755835  0.6193447960372609  0.0007430958040117965  1.0000
  O   O54       1.0  0.2765729671921093  0.3806491078374989  0.9992577255363531  1.0000
