data_image0
_chemical_formula_structural       Sr4H48C56Br8O24
_chemical_formula_sum              "Sr4 H48 C56 Br8 O24"
_cell_length_a       8.011136478
_cell_length_b       11.52639732
_cell_length_c       18.74
_cell_angle_alpha    90.0
_cell_angle_beta     90.0
_cell_angle_gamma    90.0

_space_group_name_H-M_alt    "P 1"
_space_group_IT_number       1

loop_
  _space_group_symop_operation_xyz
  'x, y, z'

loop_
  _atom_site_type_symbol
  _atom_site_label
  _atom_site_symmetry_multiplicity
  _atom_site_fract_x
  _atom_site_fract_y
  _atom_site_fract_z
  _atom_site_occupancy
  Sr  Sr1       1.0  0.749998457334982  0.052974054515758  0.500001067235857  1.0000
  Sr  Sr2       1.0  0.2499957409912952  0.4470251941653558  0.9999967982924217  1.0000
  Sr  Sr3       1.0  0.2500019823030186  0.9470244428464696  0.5000005336179285  1.0000
  Sr  Sr4       1.0  0.7500046986467055  0.5529741707706464  2.1344717211e-06  1.0000
  H   H1        1.0  0.0154222812629996  0.17258124501299224  0.5968548559231621  1.0000
  H   H2        1.0  0.5154212528196567  0.3274214739632129  0.9031451440768378  1.0000
  H   H3        1.0  0.4845779385560007  0.1725829801605343  0.4031451440768379  1.0000
  H   H4        1.0  0.9845756618503076  0.3274154009468049  0.0968532550693695  1.0000
  H   H5        1.0  0.984578158374994  0.8274189874967774  0.4031440768409809  1.0000
  H   H6        1.0  0.4845779385560007  0.6725778909727893  0.096853788687298  1.0000
  H   H7        1.0  0.5154225010819999  0.8274172523492355  0.5968543223052265  1.0000
  H   H8        1.0  0.0154235295253429  0.6725848315629648  0.903146211312702  1.0000
  H   H9        1.0  0.8511925890572769  0.2127204131464069  0.6372401280683064  1.0000
  H   H10       1.0  0.3511923692382766  0.2872831734035728  0.8627593383137651  1.0000
  H   H11       1.0  0.6488055738750305  0.2127195455726323  0.3627598719316936  1.0000
  H   H12       1.0  0.1488053540560372  0.2872831734035728  0.1372395944503708  1.0000
  H   H13       1.0  0.1488066023183805  0.7872780842158207  0.3627604055496292  1.0000
  H   H14       1.0  0.6488055738750305  0.7127161915324294  0.1372401280683064  1.0000
  H   H15       1.0  0.3511948657629631  0.7872824220846867  0.6372395944503708  1.0000
  H   H16       1.0  0.8511925890572769  0.7127196618275207  0.8627609391675577  1.0000
  H   H17       1.0  0.8470446132873874  0.5324569186376067  0.7526520811099288  1.0000
  H   H18       1.0  0.3470456417307304  0.9675460328483609  0.7473527214514419  1.0000
  H   H19       1.0  0.6529523013825766  0.5324560510638392  0.24734471718250006  1.0000
  H   H20       1.0  0.1529708054987395  0.967536489536869  0.2526536819637144  1.0000
  H   H21       1.0  0.152950833301233  0.467543313872163  0.24735005336179233  1.0000
  H   H22       1.0  0.6529610392189866  0.0324550672351833  0.2526526147278574  1.0000
  H   H23       1.0  0.3470468899930808  0.4675450490197051  0.7526531483457859  1.0000
  H   H24       1.0  0.8470283858769108  0.0324620078253588  0.7473409818569934  1.0000
  H   H25       1.0  0.0174744245569229  0.4068192228514961  0.6739242262540017  1.0000
  H   H26       1.0  0.5174746443759162  0.09319043671487752  0.8260784418356479  1.0000
  H   H27       1.0  0.4825195539503611  0.40682182557281277  0.3260747065101413  1.0000
  H   H28       1.0  0.9825409942292112  0.09317829068206862  0.17392796157950838  1.0000
  H   H29       1.0  0.9825147807199812  0.5931801420844991  0.3260768409818553  1.0000
  H   H30       1.0  0.4825307883114576  0.9068115309424343  0.1739252934898587  1.0000
  H   H31       1.0  0.5174721478512296  0.5931827448058158  0.6739236926360731  1.0000
  H   H32       1.0  0.017455700621759707  0.906820206680159  0.8260688367129134  1.0000
  H   H33       1.0  0.1224770046914685  0.4828629315373973  0.557430629669156  1.0000
  H   H34       1.0  0.6224909553962519  0.0171337144223997  0.9425731056563506  1.0000
  H   H35       1.0  0.3775119807664353  0.48287247484888957  0.44256776947705123  1.0000
  H   H36       1.0  0.877527179733562  0.017137184717491  0.0574338313767342  1.0000
  H   H37       1.0  0.8775159453724655  0.5171286252346547  0.44257257203842215  1.0000
  H   H38       1.0  0.3775194703404949  0.9828630477922858  0.0574311632870845  1.0000
  H   H39       1.0  0.6224759762481256  0.5171373009723723  0.5574290288153705  1.0000
  H   H40       1.0  0.1224645220680287  0.9828613126447365  0.9425645677694804  1.0000
  H   H41       1.0  0.0491178749832315  0.6839214180411375  0.5197038420490898  1.0000
  H   H42       1.0  0.5491305774256716  0.816070254985796  0.9802977588046957  1.0000
  H   H43       1.0  0.4508823448357688  0.6839318289264043  0.4802950907150461  1.0000
  H   H44       1.0  0.9508750750807025  0.8160763280021969  0.0197043756670254  1.0000
  H   H45       1.0  0.9508875577041422  0.3160718738784567  0.4803009605122739  1.0000
  H   H46       1.0  0.4508723587370156  0.18392563965511502  0.0197054429028825  1.0000
  H   H47       1.0  0.5491155982775382  0.3160762117473155  0.5197017075773758  1.0000
  H   H48       1.0  0.0491228680326046  0.1839221693600237  0.9802929562433319  1.0000
  C   C1        1.0  0.8615706421872318  0.8403380285350082  0.5861387406616885  1.0000
  C   C2        1.0  0.3615841532540145  0.6596571147870165  0.9138612593383115  1.0000
  C   C3        1.0  0.6384387551061792  0.8403423664038671  0.4138575240128048  1.0000
  C   C4        1.0  0.1384372870248356  0.6596597175083332  0.0861424759871952  1.0000
  C   C5        1.0  0.1384372870248356  0.1596578661059027  0.4138612593383115  1.0000
  C   C6        1.0  0.638420031171016  0.3403422501489858  0.0861387406616885  1.0000
  C   C7        1.0  0.3615716706305747  0.1596622039747615  0.5861387406616885  1.0000
  C   C8        1.0  0.8615531665144118  0.3403405150014365  0.9138559231590193  1.0000
  C   C9        1.0  0.9036533105983651  0.7211559491860342  0.6134156883671267  1.0000
  C   C10       1.0  0.403663076878118  0.7788417968573  0.8865853788687303  1.0000
  C   C11       1.0  0.5963510936456657  0.7211585519073509  0.38658377801494476  1.0000
  C   C12       1.0  0.0963458807772923  0.7788391941359833  0.11341515474919818  1.0000
  C   C13       1.0  0.0963496255643221  0.2788416806024188  0.3865875133404515  1.0000
  C   C14       1.0  0.5963448523339494  0.2211558329311529  0.1134162219850552  1.0000
  C   C15       1.0  0.403645601205298  0.2788460184712775  0.6134135538954126  1.0000
  C   C16       1.0  0.9036483175489849  0.22115409778361084  0.8865837780149448  1.0000
  C   C17       1.0  0.8491404457633536  0.6765210137663402  0.6789509071504796  1.0000
  C   C18       1.0  0.3491489637807632  0.8234854080147187  0.8210512273212345  1.0000
  C   C19       1.0  0.6508664550053638  0.676519278618791  0.3210496264674489  1.0000
  C   C20       1.0  0.1508787178098032  0.8234793349983179  0.1789471718249729  1.0000
  C   C21       1.0  0.1508550008252669  0.3234792187434294  0.3210517609391701  1.0000
  C   C22       1.0  0.6508652067430205  0.1765139569212764  0.1789487726787655  1.0000
  C   C23       1.0  0.3491327363702936  0.3234852917598374  0.6789487726787655  1.0000
  C   C24       1.0  0.849124218352884  0.17651742721636773  0.8210490928495204  1.0000
  C   C25       1.0  0.8905153494253071  0.5646196135116384  0.7012219850586944  1.0000
  C   C26       1.0  0.3905113848192769  0.9353816028267873  0.7987780149413055  1.0000
  C   C27       1.0  0.6094940478680968  0.564622216232955  0.2987742796157917  1.0000
  C   C28       1.0  0.1095025658855064  0.9353763973841539  0.2012225186766301  1.0000
  C   C29       1.0  0.1094913315244099  0.43537541355549797  0.2987764140875128  1.0000
  C   C30       1.0  0.6094977926551339  0.0646194972567571  0.2012257203842083  1.0000
  C   C31       1.0  0.3905051435075535  0.43537801627681466  0.7012241195304156  1.0000
  C   C32       1.0  0.8904941289654573  0.0646273054207001  0.7987742796157917  1.0000
  C   C33       1.0  0.987178288838038  0.4945717071637432  0.6568249733191038  1.0000
  C   C34       1.0  0.4871855585931044  0.0054370848288627  0.8431814300960524  1.0000
  C   C35       1.0  0.5128261154059928  0.49456650172110983  0.343172892209175  1.0000
  C   C36       1.0  0.0128396264727826  0.0054353496813206  0.156828175026682  1.0000
  C   C37       1.0  0.0128171577505896  0.5054285253460264  0.3431798292422599  1.0000
  C   C38       1.0  0.5128261154059928  0.9945605449595903  0.1568244397011753  1.0000
  C   C39       1.0  0.4871743242320008  0.5054354659362019  0.6568244397011753  1.0000
  C   C40       1.0  0.9871670544769344  0.9945648828284561  0.8431686232657398  1.0000
  C   C41       1.0  0.0448213559943795  0.5371201276618862  0.5915683030949808  1.0000
  C   C42       1.0  0.5448253206004097  0.9628828238240886  0.9084343649946617  1.0000
  C   C43       1.0  0.4551813603493073  0.5371288033996038  0.4084311632870836  1.0000
  C   C44       1.0  0.9551865732176807  0.9628724129388218  0.0915699039487734  1.0000
  C   C45       1.0  0.9551803319059644  0.46287836970034146  0.40843489861259025  1.0000
  C   C46       1.0  0.4551788638246208  0.0371174086856811  0.0915688367129164  1.0000
  C   C47       1.0  0.5448153345016564  0.46287663455279937  0.5915656350053381  1.0000
  C   C48       1.0  0.0448076251085965  0.0371234817020891  0.9084268943436483  1.0000
  C   C49       1.0  0.0042528298068021  0.6494674608353677  0.5704471718249735  1.0000
  C   C50       1.0  0.5042617874622126  0.850541563667008  0.929552294557098  1.0000
  C   C51       1.0  0.4957486382745415  0.6494622553927343  0.4295469583777987  1.0000
  C   C52       1.0  0.9957488580935419  0.8505389609456913  0.0704530416222013  1.0000
  C   C53       1.0  0.9957538511429149  0.3505388446908029  0.42955282817502644  1.0000
  C   C54       1.0  0.4957473900121983  0.1494604039903109  0.0704525080042657  1.0000
  C   C55       1.0  0.5042480565764222  0.3505449177072109  0.5704493062966947  1.0000
  C   C56       1.0  0.004239098921019  0.1494630067116205  0.929544290288156  1.0000
  Br  Br1       1.0  0.7203147787891169  0.7690746513326019  0.7433735325506916  1.0000
  Br  Br2       1.0  0.2203245450688698  0.7309256974320562  0.7566296691568866  1.0000
  Br  Br3       1.0  0.7796796393561607  0.7690815919227774  0.2566291355389509  1.0000
  Br  Br4       1.0  0.2796856608488767  0.730922227136972  0.2433724653148346  1.0000
  Br  Br5       1.0  0.2796756747501234  0.2309177730132248  0.2566302027748151  1.0000
  Br  Br6       1.0  0.7796758945691238  0.269081475667889  0.2433703308431134  1.0000
  Br  Br7       1.0  0.22031830375715344  0.23092124330830902  0.7433713980789775  1.0000
  Br  Br8       1.0  0.7203085374773934  0.2690806080941144  0.7566286019210224  1.0000
  O   O1        1.0  0.8938794164430135  0.1893566514675697  0.5906019210245431  1.0000
  O   O2        1.0  0.3938742035746401  0.3106399944922273  0.909397545357521  1.0000
  O   O3        1.0  0.6061212430139804  0.189360121762661  0.4093986125933852  1.0000
  O   O4        1.0  0.1061172784079503  0.3106408620659948  0.0905992529349007  1.0000
  O   O5        1.0  0.1061222714573233  0.8106383755995666  0.4093991462113138  1.0000
  O   O6        1.0  0.6061262360633606  0.6893576352962327  0.0906024546424788  1.0000
  O   O7        1.0  0.3938779483616699  0.8106418458946578  0.5906013874066147  1.0000
  O   O8        1.0  0.8938831612300504  0.6893593704437748  0.9094012806830278  1.0000
  O   O9        1.0  0.7125743039925254  0.8777894531228939  0.5903361792956261  1.0000
  O   O10       1.0  0.2125790772229053  0.6222065577728983  0.9096638207043738  1.0000
  O   O11       1.0  0.7874325967761919  0.8777937909917526  0.4096622198505884  1.0000
  O   O12       1.0  0.2874261356454682  0.622207425346673  0.0903356456776976  1.0000
  O   O13       1.0  0.2874286321701618  0.1222055739442425  0.409664887940238  1.0000
  O   O14       1.0  0.7874276037268118  0.377796277458188  0.0903361792956261  1.0000
  O   O15       1.0  0.2125628498124286  0.1222064415180171  0.5903361792956261  1.0000
  O   O16       1.0  0.7125743039925254  0.37779280716309677  0.9096638207043738  1.0000
  O   O17       1.0  0.9779985675585436  0.8988697606339358  0.5572529348986137  1.0000
  O   O18       1.0  0.4779970994772  0.6011279854094057  0.9427486659551788  1.0000
  O   O19       1.0  0.522009581472517  0.8988706282077032  0.44274813233724325  1.0000
  O   O20       1.0  0.0219968790300769  0.6011236475405468  0.05724973319103549  1.0000
  O   O21       1.0  0.0220056168664868  0.1011278691545243  0.44274813233724325  1.0000
  O   O22       1.0  0.5220083332101737  0.3988679092315053  0.057250800426892595  1.0000
  O   O23       1.0  0.4779908581654766  0.1011356773184673  0.5572556029882633  1.0000
  O   O24       1.0  0.9779985675585436  0.3988713795265895  0.9427481323372432  1.0000
