data_image0
_chemical_formula_structural       Cu4P4H16C4O16
_chemical_formula_sum              "Cu4 P4 H16 C4 O16"
_cell_length_a       7.444581498024851
_cell_length_b       7.510464346462122
_cell_length_c       8.00741059045175
_cell_angle_alpha    89.97032828235977
_cell_angle_beta     116.38365290808413
_cell_angle_gamma    90.04400402520926

_space_group_name_H-M_alt    "P 1"
_space_group_IT_number       1

loop_
  _space_group_symop_operation_xyz
  'x, y, z'

loop_
  _atom_site_type_symbol
  _atom_site_label
  _atom_site_symmetry_multiplicity
  _atom_site_fract_x
  _atom_site_fract_y
  _atom_site_fract_z
  _atom_site_occupancy
  Cu  Cu1       1.0  0.9018317041978393  0.8105613685675903  0.9421181239300437  1.0000
  Cu  Cu2       1.0  0.5978815705368561  0.3106373779800791  0.05758879831356009  1.0000
  Cu  Cu3       1.0  0.0976046396309656  0.18929577587806526  0.05716619377525939  1.0000
  Cu  Cu4       1.0  0.40274968797093186  0.6891985302718382  0.9430906117815778  1.0000
  P   P1        1.0  0.2529818447793204  0.5531337530087298  0.22115613354356606  1.0000
  P   P2        1.0  0.2467077216856026  0.0532546179983555  0.7790389229687731  1.0000
  P   P3        1.0  0.7468020030996598  0.44689642840049265  0.7788038076826352  1.0000
  P   P4        1.0  0.7535358645316067  0.9467703930110217  0.2209882786462742  1.0000
  H   H1        1.0  0.7423872609319275  0.06685664930535748  0.7510279993409199  1.0000
  H   H2        1.0  0.7578552482456827  0.5668357176650929  0.24891877276298402  1.0000
  H   H3        1.0  0.2569620935917952  0.9330138739940635  0.24790470756415312  1.0000
  H   H4        1.0  0.24274195637295284  0.4330413476985981  0.7521438076626125  1.0000
  H   H5        1.0  0.5689549261237516  0.9307059947082621  0.7354127559802847  1.0000
  H   H6        1.0  0.9307785358728821  0.430287467693624  0.2645529199947345  1.0000
  H   H7        1.0  0.43061301295998794  0.0692176943661167  0.2641577592671212  1.0000
  H   H8        1.0  0.06960633763400638  0.5696495965908069  0.7359193460673338  1.0000
  H   H9        1.0  0.5358996324536847  0.6947202984458372  0.4594449722258673  1.0000
  H   H10       1.0  0.9639222024814272  0.1945912240143386  0.5406959546599949  1.0000
  H   H11       1.0  0.46318695698216317  0.3057847882619668  0.5411220521118096  1.0000
  H   H12       1.0  0.037011854638009795  0.8059441506122125  0.4587985730056373  1.0000
  H   H13       1.0  0.35884214803962783  0.6270028858434884  0.5393892818145786  1.0000
  H   H14       1.0  0.1411762434119694  0.1275069580148909  0.4607973059416962  1.0000
  H   H15       1.0  0.6398636366408537  0.37297632500222017  0.46044859459558285  1.0000
  H   H16       1.0  0.8600914901256259  0.8725610165960589  0.5393436054207115  1.0000
  C   C1        1.0  0.438653143568807  0.584499944513105  0.45917679894287716  1.0000
  C   C2        1.0  0.06125757625468248  0.08461304306995027  0.5408589327433261  1.0000
  C   C3        1.0  0.5605752758278797  0.41574565787416157  0.5410287944626972  1.0000
  C   C4        1.0  0.9395552449952547  0.9156865254473202  0.45895812852688767  1.0000
  O   O1        1.0  0.1354120332428934  0.7307319221320013  0.168599040819899  1.0000
  O   O2        1.0  0.36376681380723846  0.23126015754728976  0.8314918107562688  1.0000
  O   O3        1.0  0.8642868222704363  0.26925710433008726  0.8308065580358457  1.0000
  O   O4        1.0  0.6365693778288984  0.7687034781787573  0.16912409913722823  1.0000
  O   O5        1.0  0.35679667332675546  0.5057215713906941  0.09700333767984397  1.0000
  O   O6        1.0  0.14264552498993047  0.005661975557821101  0.9029909347494323  1.0000
  O   O7        1.0  0.6435568270363422  0.49400376922861966  0.9034948375136267  1.0000
  O   O8        1.0  0.8569696223947858  0.9941339460771275  0.09644784581057299  1.0000
  O   O9        1.0  0.1147036713802834  0.39516343523974484  0.21495125057117548  1.0000
  O   O10       1.0  0.38518002741302126  0.8956380763514246  0.785470073003438  1.0000
  O   O11       1.0  0.885115379237348  0.6047269926047533  0.784870790207982  1.0000
  O   O12       1.0  0.615031308092206  0.10422976680327169  0.21470755026033558  1.0000
  O   O13       1.0  0.6967538297990642  0.9404475467541856  0.7208580443039166  1.0000
  O   O14       1.0  0.8029349146401401  0.4402983736779973  0.2789883685736001  1.0000
  O   O15       1.0  0.30259347104448153  0.0594349055182164  0.2782686392486085  1.0000
  O   O16       1.0  0.1976523494337386  0.5595880634852222  0.7218740660416642  1.0000
