data_image0
_chemical_formula_structural       Y4H32C24N4O28
_chemical_formula_sum              "Y4 H32 C24 N4 O28"
_cell_length_a       6.5931110790068175
_cell_length_b       6.77913195140147
_cell_length_c       19.509897048036894
_cell_angle_alpha    93.03726417136753
_cell_angle_beta     90.0001641494042
_cell_angle_gamma    89.9999868353287

_space_group_name_H-M_alt    "P 1"
_space_group_IT_number       1

loop_
  _space_group_symop_operation_xyz
  'x, y, z'

loop_
  _atom_site_type_symbol
  _atom_site_label
  _atom_site_symmetry_multiplicity
  _atom_site_fract_x
  _atom_site_fract_y
  _atom_site_fract_z
  _atom_site_occupancy
  Y   Y1        1.0  0.25921821015053587  0.7685191447674529  0.8978875298476581  1.0000
  Y   Y2        1.0  0.7592130910146366  0.7314795448465077  0.6021092941022133  1.0000
  Y   Y3        1.0  0.7407842243578456  0.23147946621080703  0.1021118656991007  1.0000
  Y   Y4        1.0  0.24078479329408964  0.2685205370700743  0.39789115472621006  1.0000
  H   H1        1.0  0.18321577165052358  0.2753338875621125  0.7946355158857799  1.0000
  H   H2        1.0  0.6832191100748091  0.22466396735945446  0.7053621071352865  1.0000
  H   H3        1.0  0.8167836293864356  0.7246632493538102  0.20536333887733352  1.0000
  H   H4        1.0  0.31677725750135716  0.7753390658065201  0.2946389107550615  1.0000
  H   H5        1.0  0.9849740617976083  0.19078893679601086  0.8450546025063091  1.0000
  H   H6        1.0  0.4849786360761215  0.3092118417341396  0.654943882209757  1.0000
  H   H7        1.0  0.015026855978291601  0.8092096710579567  0.1549453055414105  1.0000
  H   H8        1.0  0.5150177314979201  0.6907897173693558  0.34505659489841634  1.0000
  H   H9        1.0  0.8236461493719033  0.49788001747926797  0.7508191879920005  1.0000
  H   H10       1.0  0.3236470370056209  0.0021222498909593997  0.7491796810558357  1.0000
  H   H11       1.0  0.1763547684083235  0.5021185841259735  0.24918174505911847  1.0000
  H   H12       1.0  0.6763493305706735  0.9978763517144885  0.2508212519930808  1.0000
  H   H13       1.0  0.08915368599924278  0.4929005417753133  0.7364112448825467  1.0000
  H   H14       1.0  0.5891545306168312  0.007091409890620099  0.7635866862998811  1.0000
  H   H15       1.0  0.9108472317766072  0.5070995432654968  0.2635886914456549  1.0000
  H   H16       1.0  0.4108433536918951  0.992908672025969  0.23641376252854943  1.0000
  H   H17       1.0  0.8363935356363826  0.4192231958959667  0.9259076794684021  1.0000
  H   H18       1.0  0.336389893205741  0.0807820246805093  0.5740912585000403  1.0000
  H   H19       1.0  0.16360889887628363  0.5807768860204091  0.0740927693622311  1.0000
  H   H20       1.0  0.6636064743682937  0.9192195344229858  0.4259092186081332  1.0000
  H   H21       1.0  0.6898266013232474  0.4656786875007839  0.8524919728077832  1.0000
  H   H22       1.0  0.1898235893789675  0.0343235921273291  0.6475067664659235  1.0000
  H   H23       1.0  0.31017583318946146  0.5343199172287569  0.14750844774237493  1.0000
  H   H24       1.0  0.810174294929766  0.9656764897892529  0.3524936823625069  1.0000
  H   H25       1.0  0.2082932052986237  0.9550820294905549  0.0333917015049039  1.0000
  H   H26       1.0  0.7082927234912192  0.5449114543565656  0.46660668572640424  1.0000
  H   H27       1.0  0.791706195740467  0.044916581487839814  0.9666076940403842  1.0000
  H   H28       1.0  0.29170667754994645  0.4550901078711505  0.5333932788815403  1.0000
  H   H29       1.0  0.42196626509593216  0.8501968447447723  0.0384899500029903  1.0000
  H   H30       1.0  0.9219657172080391  0.6497995770282116  0.4615081884981577  1.0000
  H   H31       1.0  0.5780346526778004  0.1498017662335513  0.9615094455430295  1.0000
  H   H32       1.0  0.0780336838331763  0.3502005080126692  0.5384917478293048  1.0000
  C   C1        1.0  0.25429950056306444  0.29002286746582223  0.8998755272043938  1.0000
  C   C2        1.0  0.7543019530213187  0.20997646125580618  0.6001216805288578  1.0000
  C   C3        1.0  0.7457044506778344  0.7099742694498872  0.10012332756092232  1.0000
  C   C4        1.0  0.24569896475874495  0.7900280490968042  0.39987936564417487  1.0000
  C   C5        1.0  0.09966815964723712  0.30741170386504996  0.8426328359587955  1.0000
  C   C6        1.0  0.5996695828409386  0.19258615246074126  0.6573657310439813  1.0000
  C   C7        1.0  0.9003327581265026  0.6925869071132809  0.15736655958722423  1.0000
  C   C8        1.0  0.4003283014699548  0.8074139263314846  0.3426352302861417  1.0000
  C   C9        1.0  0.9697608563004111  0.5569162163455346  0.7700536816818797  1.0000
  C   C10       1.0  0.4697584512308453  0.9430794996091832  0.7299432898832379  1.0000
  C   C11       1.0  0.030240061477734097  0.44307943401039307  0.22994668230658993  1.0000
  C   C12       1.0  0.530239433075714  0.0569205854317687  0.2700566464434928  1.0000
  C   C13       1.0  0.9772352616299147  0.7782509817633779  0.7608845408956384  1.0000
  C   C14       1.0  0.4772511833363354  0.7217433344280265  0.7390995971037668  1.0000
  C   C15       1.0  0.0227641394135034  0.22174762296629774  0.23911587965304903  1.0000
  C   C16       1.0  0.5227482177071253  0.278253793114807  0.2609007951644386  1.0000
  C   C17       1.0  0.780105918559556  0.7213305451822621  0.9153760978056908  1.0000
  C   C18       1.0  0.2801023217035734  0.7786755253281825  0.5846214003049823  1.0000
  C   C19       1.0  0.21989651595094986  0.2786695398584769  0.0846238385232496  1.0000
  C   C20       1.0  0.7198955626029501  0.22132603689960456  0.4153785643022232  1.0000
  C   C21       1.0  0.8222209744939165  0.5170401253938622  0.8828543435273062  1.0000
  C   C22       1.0  0.32221609088099973  0.9829644609477556  0.6171436796452668  1.0000
  C   C23       1.0  0.17778146001658263  0.4829599596468769  0.11714559280162723  1.0000
  C   C24       1.0  0.677781793427684  0.0170370981556687  0.3828567974636385  1.0000
  N   N1        1.0  0.010309710200857601  0.5059995893762945  0.8412158208071929  1.0000
  N   N2        1.0  0.5103050123252119  0.9939991074155542  0.658783324271006  1.0000
  N   N3        1.0  0.9896942410442904  0.49400049566437326  0.1587841155224794  1.0000
  N   N4        1.0  0.48969287198135447  0.006000977625397799  0.3412166120557245  1.0000
  O   O1        1.0  0.3107312505745555  0.4472644106707833  0.9325432376270796  1.0000
  O   O2        1.0  0.8107213276308797  0.05273047819745359  0.5674544524854355  1.0000
  O   O3        1.0  0.6892727006685534  0.5527312459337281  0.0674561013594612  1.0000
  O   O4        1.0  0.18927807341461997  0.9472710777815436  0.4325465371259085  1.0000
  O   O5        1.0  0.3269754181197868  0.11920386356776902  0.9097027475605657  1.0000
  O   O6        1.0  0.8269747166094632  0.38079103318517576  0.5902934208041941  1.0000
  O   O7        1.0  0.6730285331189095  0.8807947536591383  0.0902956229835326  1.0000
  O   O8        1.0  0.17302316769926315  0.6192090487314061  0.4097070280242363  1.0000
  O   O9        1.0  0.056022395732774996  0.887074025502045  0.8085065314102096  1.0000
  O   O10       1.0  0.5560089573997188  0.6129364721002658  0.6914949342444956  1.0000
  O   O11       1.0  0.943977005310643  0.1129245792276308  0.1914938891384708  1.0000
  O   O12       1.0  0.44399196037180394  0.3870636191892629  0.3085039770803064  1.0000
  O   O13       1.0  0.9121018828177229  0.8423069151232381  0.7050504506796287  1.0000
  O   O14       1.0  0.41208492223547916  0.6576784345621363  0.7949513920169622  1.0000
  O   O15       1.0  0.0878960014910035  0.15769316679334372  0.2949499981487946  1.0000
  O   O16       1.0  0.5879144788079388  0.34232017016753946  0.2050490285317252  1.0000
  O   O17       1.0  0.9304811554763432  0.8199760890363449  0.9409332751938494  1.0000
  O   O18       1.0  0.43047433084873876  0.6800299708244282  0.5590638562407619  1.0000
  O   O19       1.0  0.0695212790341557  0.18002399600439384  0.05906666113508411  1.0000
  O   O20       1.0  0.5695235534556174  0.31997159452771484  0.44093559586474373  1.0000
  O   O21       1.0  0.601106968726164  0.7853757109046171  0.9185006719595775  1.0000
  O   O22       1.0  0.10110184278131132  0.7146288988151424  0.581496624284668  1.0000
  O   O23       1.0  0.39889546578433505  0.21462437413612173  0.0814992643693557  1.0000
  O   O24       1.0  0.8988990749923786  0.2853711893500304  0.4185027995418338  1.0000
  O   O25       1.0  0.28432554708483343  0.833536976895985  0.018568017849268904  1.0000
  O   O26       1.0  0.7843236471285592  0.6664594606091399  0.4814294746716925  1.0000
  O   O27       1.0  0.7156738539563746  0.16646310814489607  0.9814319184781936  1.0000
  O   O28       1.0  0.21567575391265592  0.33354062443173405  0.5185704616557701  1.0000
