data_image0
_chemical_formula_structural       Mg4H32C16O28
_chemical_formula_sum              "Mg4 H32 C16 O28"
_cell_length_a       6.9028926035279845
_cell_length_b       10.273261869156205
_cell_length_c       10.85099579808236
_cell_angle_alpha    90.0002330365352
_cell_angle_beta     97.96890416252063
_cell_angle_gamma    90.0005713310744

_space_group_name_H-M_alt    "P 1"
_space_group_IT_number       1

loop_
  _space_group_symop_operation_xyz
  'x, y, z'

loop_
  _atom_site_type_symbol
  _atom_site_label
  _atom_site_symmetry_multiplicity
  _atom_site_fract_x
  _atom_site_fract_y
  _atom_site_fract_z
  _atom_site_occupancy
  Mg  Mg1       1.0  0.05952956325223373  0.6161005460537794  0.8075271524643314  1.0000
  Mg  Mg2       1.0  0.4404571533762225  0.11609970096839824  0.6924595456528949  1.0000
  Mg  Mg3       1.0  0.940459312438769  0.38390022494275666  0.19247430802397505  1.0000
  Mg  Mg4       1.0  0.559547553757902  0.8838962030737679  0.30754000523622693  1.0000
  H   H1        1.0  0.7804235764966735  0.6858826999079213  0.617361024602957  1.0000
  H   H2        1.0  0.7195702034671285  0.18587641602102417  0.8826326723663557  1.0000
  H   H3        1.0  0.21957651268210304  0.3141190445152874  0.38263550696196813  1.0000
  H   H4        1.0  0.2804215148838978  0.814119487979916  0.11736801946808845  1.0000
  H   H5        1.0  0.9785988481157801  0.6761784416821044  0.5659806710942874  1.0000
  H   H6        1.0  0.5213829368122662  0.17618177222117026  0.9340104915311969  1.0000
  H   H7        1.0  0.021395555628309616  0.32381843572222374  0.43401739774385123  1.0000
  H   H8        1.0  0.4786100062621444  0.8238160785786874  0.06598749804136621  1.0000
  H   H9        1.0  0.3699043280076  0.6303954261861192  0.9773991286781583  1.0000
  H   H10       1.0  0.13005880404192283  0.1303867846945224  0.5225983427471306  1.0000
  H   H11       1.0  0.6301063005839396  0.3696121586871969  0.0226016664882067  1.0000
  H   H12       1.0  0.8699316896545003  0.8696159331135433  0.47740505136989964  1.0000
  H   H13       1.0  0.2284735190903575  0.5284513171560832  0.0325773727078627  1.0000
  H   H14       1.0  0.2715129554281432  0.028455531671291088  0.4674271887150071  1.0000
  H   H15       1.0  0.7715166600492154  0.47156016124793615  0.967422312717382  1.0000
  H   H16       1.0  0.7284887517560608  0.971548159563447  0.5325712764786419  1.0000
  H   H17       1.0  0.7095336971330469  0.8920190488002222  0.823904544328123  1.0000
  H   H18       1.0  0.7904916569062195  0.39201126743187603  0.6761156603959152  1.0000
  H   H19       1.0  0.290468639378851  0.10799437646139863  0.17610133831349373  1.0000
  H   H20       1.0  0.20952280306128304  0.6079885302338398  0.32387888230884704  1.0000
  H   H21       1.0  0.8435813144492813  0.8977366577340148  0.977129807518104  1.0000
  H   H22       1.0  0.6564751632900254  0.3977554514811458  0.5228791876927374  1.0000
  H   H23       1.0  0.1564284827009104  0.1022689803529886  0.022878325800746807  1.0000
  H   H24       1.0  0.34353507192775373  0.6022404525715005  0.47711697155542515  1.0000
  H   H25       1.0  0.15002287993524283  0.9820753204568575  0.8693739593181962  1.0000
  H   H26       1.0  0.34998647124970017  0.48208426892506395  0.630642149449507  1.0000
  H   H27       1.0  0.8499735350657432  0.017919610168924297  0.13063067903007664  1.0000
  H   H28       1.0  0.6500174044354453  0.5179087149301225  0.36936473958979843  1.0000
  H   H29       1.0  0.00878860874996692  0.9641921340131534  0.7196145843238713  1.0000
  H   H30       1.0  0.4912015961390069  0.4641755125783576  0.7803847266157506  1.0000
  H   H31       1.0  0.9912143231194009  0.035808637017147815  0.280381178596393  1.0000
  H   H32       1.0  0.5087916615916016  0.5358262318342711  0.21961697167849795  1.0000
  C   C1        1.0  0.722924605891784  0.7099875653454931  0.9214062661587196  1.0000
  C   C2        1.0  0.7770716424955212  0.20998019225845616  0.5785950414327274  1.0000
  C   C3        1.0  0.2770798653571802  0.2900190460964964  0.0785905032213492  1.0000
  C   C4        1.0  0.22294167141264867  0.7900186320115312  0.4214031307143388  1.0000
  C   C5        1.0  0.8142839263773214  0.8390003806273327  0.8916269993050537  1.0000
  C   C6        1.0  0.6857336514271992  0.33901589503060586  0.6083796573156236  1.0000
  C   C7        1.0  0.1857060953882907  0.1610033105662723  0.10837083174555323  1.0000
  C   C8        1.0  0.314282583827982  0.660981955848996  0.39161867336489564  1.0000
  C   C9        1.0  0.09833637970235293  0.9112775887563915  0.7957872756423328  1.0000
  C   C10       1.0  0.4016662977804587  0.41126972410174284  0.7042143529840743  1.0000
  C   C11       1.0  0.9016599566957241  0.0887241556715637  0.20421643554391275  1.0000
  C   C12       1.0  0.5983323306751345  0.5887261799122996  0.29578209929916716  1.0000
  C   C13       1.0  0.27470588047128086  0.8478473889896421  0.7481038108113369  1.0000
  C   C14       1.0  0.22530638531257816  0.3478492685849375  0.7518851716840446  1.0000
  C   C15       1.0  0.7252976019547435  0.15214851505495372  0.2518984423442703  1.0000
  C   C16       1.0  0.7747010858939447  0.6521505290651604  0.24811268339379922  1.0000
  O   O1        1.0  0.5799146353880219  0.7134340388401128  0.9815383451827062  1.0000
  O   O2        1.0  0.9200914986886063  0.2134409699511792  0.5184588977168902  1.0000
  O   O3        1.0  0.42008446507481534  0.2865706257950933  0.018463670189966305  1.0000
  O   O4        1.0  0.0799128151863968  0.7865578542804031  0.4815360172885335  1.0000
  O   O5        1.0  0.7965136454007008  0.6059973785171594  0.8820837474786817  1.0000
  O   O6        1.0  0.7034954197129437  0.1060101395021746  0.617916006972358  1.0000
  O   O7        1.0  0.20348099432789718  0.3940014456960768  0.11791710289842434  1.0000
  O   O8        1.0  0.2965078267514941  0.8939867379355207  0.3820834646511885  1.0000
  O   O9        1.0  0.9900378762220542  0.809294615702079  0.8428202389121043  1.0000
  O   O10       1.0  0.5099698865409579  0.30929262867616797  0.6571617742921135  1.0000
  O   O11       1.0  0.009956134308765706  0.19071102229568745  0.1571731940561349  1.0000
  O   O12       1.0  0.49004228128495714  0.6907023019960832  0.3428400272903503  1.0000
  O   O13       1.0  0.4033116603799911  0.924337573107458  0.7167076194081903  1.0000
  O   O14       1.0  0.09669280650319222  0.4243465211447415  0.783278467493794  1.0000
  O   O15       1.0  0.5966919006718712  0.07565443733697208  0.2832955609163363  1.0000
  O   O16       1.0  0.9033066534166708  0.5756542498576278  0.21671064664386827  1.0000
  O   O17       1.0  0.28158973655927616  0.724810529779731  0.7435488075471215  1.0000
  O   O18       1.0  0.21839336129263395  0.22482601236342958  0.7564270404863082  1.0000
  O   O19       1.0  0.7184132738977241  0.2751814806470492  0.2564478825305585  1.0000
  O   O20       1.0  0.7816067278937882  0.7751767054604528  0.24356949108091194  1.0000
  O   O21       1.0  0.8980037925256429  0.6321621045705115  0.6239189496903778  1.0000
  O   O22       1.0  0.6019716158472832  0.13216569940094297  0.8760735421768475  1.0000
  O   O23       1.0  0.10199222923151302  0.3678376930460132  0.3760810527787869  1.0000
  O   O24       1.0  0.39802010252666525  0.8678331248020115  0.12392714966449604  1.0000
  O   O25       1.0  0.23030672998734059  0.6086628185350165  0.980974935884362  1.0000
  O   O26       1.0  0.26969356645746967  0.10865121208400548  0.5190189307107077  1.0000
  O   O27       1.0  0.7696674940302444  0.3913330854469876  0.019042341851935898  1.0000
  O   O28       1.0  0.7303026126048594  0.8913476121368973  0.4809829261124038  1.0000
