data_image0
_chemical_formula_structural       Cu3H28C24N6O20
_chemical_formula_sum              "Cu3 H28 C24 N6 O20"
_cell_length_a       8.514740294876509
_cell_length_b       11.170007935059546
_cell_length_c       13.191905529071708
_cell_angle_alpha    115.03079241626183
_cell_angle_beta     93.23147864613222
_cell_angle_gamma    89.9856097020063

_space_group_name_H-M_alt    "P 1"
_space_group_IT_number       1

loop_
  _space_group_symop_operation_xyz
  'x, y, z'

loop_
  _atom_site_type_symbol
  _atom_site_label
  _atom_site_symmetry_multiplicity
  _atom_site_fract_x
  _atom_site_fract_y
  _atom_site_fract_z
  _atom_site_occupancy
  Cu  Cu1       1.0  0.9826194134831281  0.9945649093643284  0.9886754019898802  1.0000
  Cu  Cu2       1.0  0.6176297381358679  0.028884079665843398  0.0581148539439553  1.0000
  Cu  Cu3       1.0  0.36534113586311884  0.9667849932493127  0.933729252306435  1.0000
  H   H1        1.0  0.9749169471569061  0.30395335203562  0.4477879299015797  1.0000
  H   H2        1.0  0.019960320106712004  0.8513133503408312  0.5429408741762104  1.0000
  H   H3        1.0  0.020317485026588103  0.6913629703631443  0.543221094311761  1.0000
  H   H4        1.0  0.9749544129786823  0.14394377526694058  0.4478274161565565  1.0000
  H   H5        1.0  0.7877167443767447  0.10311287040151029  0.7734488923221292  1.0000
  H   H6        1.0  0.2118620297630613  0.3311739960737512  0.23555488579420822  1.0000
  H   H7        1.0  0.21182503653603388  0.9039154477108224  0.23563150138782865  1.0000
  H   H8        1.0  0.7874983578110458  0.6709283364419818  0.7728756330450111  1.0000
  H   H9        1.0  0.6923540369915883  0.2544491846426523  0.8458524458383748  1.0000
  H   H10       1.0  0.2962983259918558  0.4108124404551532  0.15880448912449202  1.0000
  H   H11       1.0  0.2962897374071716  0.7476034009303447  0.15901425106014946  1.0000
  H   H12       1.0  0.6933809900490928  0.5916842954446294  0.8454971262396712  1.0000
  H   H13       1.0  0.447321257069717  0.1488388309849356  0.7076343122513579  1.0000
  H   H14       1.0  0.5534624816939057  0.4386258003904188  0.2863313137658068  1.0000
  H   H15       1.0  0.5535535460207939  0.8474869438792964  0.28641285321359783  1.0000
  H   H16       1.0  0.44744061704033555  0.5588600523297061  0.7077186139091013  1.0000
  H   H17       1.0  0.577058617648511  0.0248043486342695  0.6241259273077447  1.0000
  H   H18       1.0  0.43180041416941606  0.4006265945539056  0.3753689729960215  1.0000
  H   H19       1.0  0.4317710780501329  0.9744295209363257  0.3753896553138034  1.0000
  H   H20       1.0  0.576592437688312  0.5992053425731639  0.6238655451122525  1.0000
  H   H21       1.0  0.9429888444812987  0.8147404935215831  0.04970318843035666  1.0000
  H   H22       1.0  0.12306584176490529  0.8287805831750246  0.021355253140711614  1.0000
  H   H23       1.0  0.1234157139737775  0.19261152392807188  0.021621283097516705  1.0000
  H   H24       1.0  0.943615934102361  0.2354759147942715  0.0504228789515864  1.0000
  H   H25       1.0  0.7444723761908206  0.2306251779063332  0.3041884124853098  1.0000
  H   H26       1.0  0.2477766927498024  0.9231250043156009  0.6885047271048634  1.0000
  H   H27       1.0  0.24801166540199654  0.7658945676446435  0.6887843893252991  1.0000
  H   H28       1.0  0.7449165006086388  0.07352985254730268  0.3040328565201378  1.0000
  C   C1        1.0  0.9358407001171968  0.1122583721193351  0.223486644293061  1.0000
  C   C2        1.0  0.0551894084944067  0.8834197128260044  0.7664246119718569  1.0000
  C   C3        1.0  0.8218268332165833  0.15821077965031793  0.3161955587354869  1.0000
  C   C4        1.0  0.17126729112315786  0.837990842997769  0.6757376732632849  1.0000
  C   C5        1.0  0.9020991219171464  0.21687294651324152  0.433643749758474  1.0000
  C   C6        1.0  0.09267219033684168  0.7788630623554481  0.5579460672394916  1.0000
  C   C7        1.0  0.5989361976182083  0.0929950357485296  0.8677081923064379  1.0000
  C   C8        1.0  0.39213560207193143  0.22623936299211064  0.13133966028524208  1.0000
  C   C9        1.0  0.3919408169985132  0.9045988801547866  0.13126714931883768  1.0000
  C   C10       1.0  0.5988021136580741  0.7746979824309789  0.8675401278454659  1.0000
  C   C11       1.0  0.672069994600399  0.1480093169065526  0.7937560414251834  1.0000
  C   C12       1.0  0.3234173005177182  0.35506333549600544  0.2090774991621771  1.0000
  C   C13       1.0  0.32342328683063926  0.8535957147349718  0.20914993522953293  1.0000
  C   C14       1.0  0.6722281280497526  0.6459777439606638  0.7934265193792811  1.0000
  C   C15       1.0  0.5699856221551086  0.12631371858239498  0.6880060026475476  1.0000
  C   C16       1.0  0.4331359922342982  0.43771985364816174  0.31083368254645904  1.0000
  C   C17       1.0  0.43322013898017525  0.8728189039482928  0.31093809281875195  1.0000
  C   C18       1.0  0.5700064211952593  0.5617099919129557  0.6878815199151517  1.0000
  C   C19       1.0  0.5736677086793661  0.3437780234732202  0.6874878352288148  1.0000
  C   C20       1.0  0.4345328523455834  0.6563271255110478  0.3130288974964087  1.0000
  C   C21       1.0  0.7286160754845952  0.16628941960254906  0.5537481311385335  1.0000
  C   C22       1.0  0.27058574555892523  0.6100716158368654  0.44134734870631576  1.0000
  C   C23       1.0  0.2707409501782081  0.8310386781628197  0.44147087976861593  1.0000
  C   C24       1.0  0.728627686840987  0.3875012213260547  0.5537132377429542  1.0000
  N   N1        1.0  0.7841693959798093  0.2594941435700733  0.5189358522729179  1.0000
  N   N2        1.0  0.21349706070472504  0.7372621847298007  0.4747959200251515  1.0000
  N   N3        1.0  0.6236013505463731  0.21391197018005667  0.638777855939736  1.0000
  N   N4        1.0  0.3825154382002439  0.5750252084400105  0.36084520625347954  1.0000
  N   N5        1.0  0.382708640894748  0.7855414466334949  0.3609915793310918  1.0000
  N   N6        1.0  0.6236709525376581  0.4249120544100009  0.6387726402347624  1.0000
  O   O1        1.0  0.6829305139281415  0.10368056080532279  0.9544840135565168  1.0000
  O   O2        1.0  0.30566443860332265  0.152615821708018  0.0441469763978262  1.0000
  O   O3        1.0  0.3055870277959584  0.8906722758703225  0.04389694837458792  1.0000
  O   O4        1.0  0.6825403592375919  0.8504699209312749  0.9545494436413478  1.0000
  O   O5        1.0  0.4605433689264373  0.042438748292561  0.8395104344921407  1.0000
  O   O6        1.0  0.5295384826965872  0.19991703538661912  0.156243624550811  1.0000
  O   O7        1.0  0.5291517677603466  0.9561690787671325  0.15626755796728295  1.0000
  O   O8        1.0  0.46047993982549673  0.79714481683159  0.839200978052652  1.0000
  O   O9        1.0  0.8637267476140166  0.061020314535746  0.1220978558800212  1.0000
  O   O10       1.0  0.12396527292207787  0.9346130347849668  0.8687208790886203  1.0000
  O   O11       1.0  0.0806612333864649  0.12157150283759681  0.24058861355201341  1.0000
  O   O12       1.0  0.9107360001068869  0.8742954472989343  0.7480909352959557  1.0000
  O   O13       1.0  0.00946163182694451  0.8155436756964038  0.9922399933319568  1.0000
  O   O14       1.0  0.0096910162501445  0.17723330060849207  0.9926521563188402  1.0000
  O   O15       1.0  0.4900361128298342  0.38387674987752973  0.7676698184262705  1.0000
  O   O16       1.0  0.5203638589044814  0.6168423611237088  0.23398566552564404  1.0000
  O   O17       1.0  0.7700129045038506  0.05095433756303438  0.5129651495796068  1.0000
  O   O18       1.0  0.22467056512223849  0.5332390927464772  0.4784602406048606  1.0000
  O   O19       1.0  0.22493213030185896  0.9450078911320643  0.4786459410521147  1.0000
  O   O20       1.0  0.7699398453728249  0.46203907434098557  0.512879466032011  1.0000
