data_image0
_chemical_formula_structural       Yb4H22C22N2O32
_chemical_formula_sum              "Yb4 H22 C22 N2 O32"
_cell_length_a       7.333901968748962
_cell_length_b       10.631792355729775
_cell_length_c       12.849950291112236
_cell_angle_alpha    95.68916636695528
_cell_angle_beta     103.2385313613302
_cell_angle_gamma    106.63717771686356

_space_group_name_H-M_alt    "P 1"
_space_group_IT_number       1

loop_
  _space_group_symop_operation_xyz
  'x, y, z'

loop_
  _atom_site_type_symbol
  _atom_site_label
  _atom_site_symmetry_multiplicity
  _atom_site_fract_x
  _atom_site_fract_y
  _atom_site_fract_z
  _atom_site_occupancy
  Yb  Yb1       1.0  0.3314289270004238  0.038874142659082594  0.19091447483237542  1.0000
  Yb  Yb2       1.0  0.6685697912438188  0.9611213761199195  0.8090795243447888  1.0000
  Yb  Yb3       1.0  0.782943297979273  0.680994020926377  0.3997541891191077  1.0000
  Yb  Yb4       1.0  0.2170642755039652  0.319006625105807  0.6002504129452932  1.0000
  H   H1        1.0  0.8914282257503743  0.6638486731676209  0.9893312481120305  1.0000
  H   H2        1.0  0.10855452611516367  0.3361467153041743  0.0106674850024575  1.0000
  H   H3        1.0  0.7121908661064398  0.416017456258487  0.920803299995228  1.0000
  H   H4        1.0  0.2877735755061722  0.5839786077828606  0.07918964487716101  1.0000
  H   H5        1.0  0.5606364779017171  0.2800354849536575  0.046057145707912604  1.0000
  H   H6        1.0  0.43933999620493597  0.7199631199513448  0.9539431768064832  1.0000
  H   H7        1.0  0.9703520545676627  0.09631758215719087  0.0781607877240234  1.0000
  H   H8        1.0  0.02964046197747172  0.9036793524516112  0.9218404503305564  1.0000
  H   H9        1.0  0.06365090724803218  0.17711409355955243  0.196535989550469  1.0000
  H   H10       1.0  0.9363588032298793  0.8228919660261408  0.80346138258259  1.0000
  H   H11       1.0  0.10192326495934621  0.9855862087794592  0.3378538462350278  1.0000
  H   H12       1.0  0.8980728835611349  0.014406348881720996  0.6621401176007566  1.0000
  H   H13       1.0  0.2789014138483807  0.1162912797225815  0.40784065579713774  1.0000
  H   H14       1.0  0.7210951802531371  0.8836944162968549  0.5921581232554445  1.0000
  H   H15       1.0  0.09975332361752712  0.9275681913275305  0.5318210254368907  1.0000
  H   H16       1.0  0.9002595086639718  0.07243805583456013  0.4681771788632859  1.0000
  H   H17       1.0  0.15120667419824216  0.8088101203801228  0.5754789721328494  1.0000
  H   H18       1.0  0.848811645752278  0.19119617035919834  0.4245192722675668  1.0000
  H   H19       1.0  0.4091858908274162  0.6573392429599919  0.4440109562452791  1.0000
  H   H20       1.0  0.5908399080407138  0.3426818001703822  0.5560019774509187  1.0000
  H   H21       1.0  0.5144790050581421  0.6276398632663741  0.5551331899288955  1.0000
  H   H22       1.0  0.48553798488318756  0.3723682075612231  0.44487394765809557  1.0000
  C   C1        1.0  0.8363130467670389  0.6521235450088836  0.14627350498440714  1.0000
  C   C2        1.0  0.1636796012893243  0.3478688150305871  0.8537293251353477  1.0000
  C   C3        1.0  0.8247256639637758  0.5986795603428733  0.040198783682782804  1.0000
  C   C4        1.0  0.17525704530224567  0.40131419288879033  0.9598015567881292  1.0000
  C   C5        1.0  0.7255531856051152  0.46260440457442087  0.002940319371376199  1.0000
  C   C6        1.0  0.2744221545943192  0.5373937029672575  0.9970575667920659  1.0000
  C   C7        1.0  0.6404303064249177  0.3859875007425017  0.0721567706338249  1.0000
  C   C8        1.0  0.3595495487951155  0.61401162288994  0.9278411540435698  1.0000
  C   C9        1.0  0.6571301489503159  0.44822769685585945  0.1765565796169  1.0000
  C   C10       1.0  0.3428594070500354  0.5517705200534024  0.8234462610352297  1.0000
  C   C11       1.0  0.9459525109648868  0.7947277001572957  0.19872536660377452  1.0000
  C   C12       1.0  0.05404980441154809  0.2052671890025337  0.8012751226567831  1.0000
  C   C13       1.0  0.5710109191531033  0.37859233758062766  0.25903844224126266  1.0000
  C   C14       1.0  0.42897941408515555  0.6214070285242456  0.7409652189666289  1.0000
  C   C15       1.0  0.6066579641846346  0.9254461708112202  0.35321278424088837  1.0000
  C   C16       1.0  0.3933560574555629  0.0745577997482627  0.6467837989978947  1.0000
  C   C17       1.0  0.4808696067849353  0.8042494121029902  0.2634054814485012  1.0000
  C   C18       1.0  0.5191466103226149  0.19574787349683478  0.7365967391491283  1.0000
  C   C19       1.0  0.3945745831718666  0.9772502712481026  0.9613617303543052  1.0000
  C   C20       1.0  0.6054174884836956  0.02275336925998059  0.0386241819154236  1.0000
  C   C21       1.0  0.9421564414692656  0.4943750741097048  0.5437888387922811  1.0000
  C   C22       1.0  0.05784897000685871  0.5056288210386128  0.4562173827472123  1.0000
  N   N1        1.0  0.754140597699582  0.5781800094661874  0.21210594001200891  1.0000
  N   N2        1.0  0.2458532268635238  0.4218144831767318  0.7878977191022758  1.0000
  O   O1        1.0  0.027181160427566693  0.8748533890289489  0.1443833320522003  1.0000
  O   O2        1.0  0.9728267741291176  0.12513696913877936  0.8556187893737857  1.0000
  O   O3        1.0  0.9519893418603548  0.8249066033343478  0.2990003896610888  1.0000
  O   O4        1.0  0.04801242143624756  0.17509105936690614  0.7009993027737379  1.0000
  O   O5        1.0  0.5890443248231139  0.45213461218131096  0.3480122191561392  1.0000
  O   O6        1.0  0.41094987770907204  0.5478600462493899  0.6519922520751322  1.0000
  O   O7        1.0  0.48957101020199206  0.25410326547258677  0.23748390698253272  1.0000
  O   O8        1.0  0.5104165920537014  0.7458916696376149  0.7625172841193261  1.0000
  O   O9        1.0  0.5691705502068132  0.033536451630539005  0.34473322368334186  1.0000
  O   O10       1.0  0.430847672384182  0.9664708220921197  0.6552601749177782  1.0000
  O   O11       1.0  0.7412521416006044  0.9081866369797565  0.42708614664957184  1.0000
  O   O12       1.0  0.2587624831667413  0.09182142210454455  0.5729112724362224  1.0000
  O   O13       1.0  0.5022972985838479  0.6925900779704933  0.27635791432814477  1.0000
  O   O14       1.0  0.49770747561341006  0.30741332023900714  0.7236507250984658  1.0000
  O   O15       1.0  0.3674042406591128  0.8278717868555957  0.1830226895573759  1.0000
  O   O16       1.0  0.6326135103159629  0.17212682377292046  0.816971465261915  1.0000
  O   O17       1.0  0.37332432888047856  0.9347621889756964  0.8632966299269853  1.0000
  O   O18       1.0  0.6266658309384853  0.06523996071591398  0.13669653600408793  1.0000
  O   O19       1.0  0.25829968976723455  0.9866784129499138  0.005167336480262499  1.0000
  O   O20       1.0  0.7416865625624215  0.013317173143583693  0.9948225303502554  1.0000
  O   O21       1.0  0.8422289396167815  0.5727364455711735  0.5490285319494816  1.0000
  O   O22       1.0  0.15778144160024254  0.42726667510981997  0.45097367913039943  1.0000
  O   O23       1.0  0.955918187275863  0.4061728755581199  0.6020870213168764  1.0000
  O   O24       1.0  0.0440846544764995  0.5938280584723827  0.3979191648812376  1.0000
  O   O25       1.0  0.09892641332495344  0.1515421361033376  0.13060602756395673  1.0000
  O   O26       1.0  0.9010649821649039  0.8484498919360917  0.8693903240837599  1.0000
  O   O27       1.0  0.20219880746599023  0.07054381632947579  0.33417756130567267  1.0000
  O   O28       1.0  0.7978046972691358  0.9294487962277385  0.6658213068934983  1.0000
  O   O29       1.0  0.04120606443760964  0.830755830245195  0.5314156228892557  1.0000
  O   O30       1.0  0.9588080971616295  0.16924879257107506  0.4685841987923993  1.0000
  O   O31       1.0  0.5393356856027864  0.6773200789186331  0.4950706245682639  1.0000
  O   O32       1.0  0.46068690626271563  0.32269750615510157  0.5049446916736784  1.0000
