data_image0
_chemical_formula_structural       Ag4B4H32C16S8F16
_chemical_formula_sum              "Ag4 B4 H32 C16 S8 F16"
_cell_length_a       7.7010179160015095
_cell_length_b       7.701020002001136
_cell_length_c       14.042924422004068
_cell_angle_alpha    89.99994366270111
_cell_angle_beta     90.00006685706443
_cell_angle_gamma    90.00002592106631

_space_group_name_H-M_alt    "P 1"
_space_group_IT_number       1

loop_
  _space_group_symop_operation_xyz
  'x, y, z'

loop_
  _atom_site_type_symbol
  _atom_site_label
  _atom_site_symmetry_multiplicity
  _atom_site_fract_x
  _atom_site_fract_y
  _atom_site_fract_z
  _atom_site_occupancy
  Ag  Ag1       1.0  0.4999986012238296  5.188271999000002e-07  0.9999998452239609  1.0000
  Ag  Ag2       1.0  0.9999996167392524  0.5000010781038285  0.5000000274155241  1.0000
  Ag  Ag3       1.0  0.5000008931290836  0.9999996664076323  0.5000004440318194  1.0000
  Ag  Ag4       1.0  1.4822716570000027e-07  0.5000006317346505  0.9999998699699832  1.0000
  B   B1        1.0  0.5000006273836135  0.9999998895934967  0.24999909854982155  1.0000
  B   B2        1.0  0.9999985839558431  0.5000008549170333  0.7500020849995012  1.0000
  B   B3        1.0  0.49999986034310234  0.999998144693464  0.7500003653089848  1.0000
  B   B4        1.0  3.789099096999999e-07  0.49999977668633744  0.2499990738042115  1.0000
  H   H1        1.0  0.15163099149997808  0.9432061127300745  0.1634685929248931  1.0000
  H   H2        1.0  0.056791933249584786  0.15162998372029088  0.6634679073184984  1.0000
  H   H3        1.0  0.943207377139714  0.8483690574865151  0.6634680025414142  1.0000
  H   H4        1.0  0.4432094468370167  0.6516290642893668  0.33653100832868443  1.0000
  H   H5        1.0  0.8483698529732423  0.05679252268575401  0.1634683439296865  1.0000
  H   H6        1.0  0.34836922204497256  0.4432068549977331  0.8365308769404365  1.0000
  H   H7        1.0  0.6516304562697356  0.5567931757371128  0.8365323675067844  1.0000
  H   H8        1.0  0.5567930640891416  0.3483679635974967  0.33653183890954363  1.0000
  H   H9        1.0  0.8483679713635083  0.05679451887520772  0.8365304295716599  1.0000
  H   H10       1.0  0.943208328143534  0.8483706478852827  0.33653111517847384  1.0000
  H   H11       1.0  0.05679288425369581  0.1516328726483493  0.33653101995519563  1.0000
  H   H12       1.0  0.5567895160269316  0.34837026878599187  0.6634687262706009  1.0000
  H   H13       1.0  0.1516291098909974  0.9432081089188886  0.8365313906692508  1.0000
  H   H14       1.0  0.6516310393489064  0.5567937766072081  0.16346885765891986  1.0000
  H   H15       1.0  0.3483698051249036  0.4432074558671958  0.1634680791949563  1.0000
  H   H16       1.0  0.4432071973044458  0.6516313694781601  0.6634678956901611  1.0000
  H   H17       1.0  0.1402517287920872  0.14334458940517442  0.10094407995923403  1.0000
  H   H18       1.0  0.8566549559736316  0.14025250676788661  0.60094344066372  1.0000
  H   H19       1.0  0.14334422149243406  0.8597492431333296  0.6009437295433673  1.0000
  H   H20       1.0  0.6433453910466937  0.6402500415886723  0.3990558013766973  1.0000
  H   H21       1.0  0.8597476842290062  0.8566567547041403  0.10094482934449191  1.0000
  H   H22       1.0  0.3597470504858222  0.6433452249216317  0.8990555522754706  1.0000
  H   H23       1.0  0.6402514622229063  0.3566572912362815  0.8990557197203587  1.0000
  H   H24       1.0  0.3566520586847375  0.3597468746611768  0.3990557855119904  1.0000
  H   H25       1.0  0.8597472340718538  0.8566547436701909  0.8990556546400512  1.0000
  H   H26       1.0  0.14334400689014606  0.8597494233666796  0.39905558183247797  1.0000
  H   H27       1.0  0.8566547413713436  0.14025268700123664  0.3990552929528307  1.0000
  H   H28       1.0  0.35665487034688687  0.3597492914869847  0.6009439332230073  1.0000
  H   H29       1.0  0.14025127863523318  0.14334387690050224  0.8990549052544453  1.0000
  H   H30       1.0  0.6402519123791707  0.35665540668237833  0.10094489442585093  1.0000
  H   H31       1.0  0.359747500642385  0.64334463889702  0.10094472698061452  1.0000
  H   H32       1.0  0.6433482027088432  0.64025245841448  0.6009439490877142  1.0000
  C   C1        1.0  0.0982403679414716  0.007658658481808801  0.10020066834970011  1.0000
  C   C2        1.0  0.9923409045186773  0.09824122013560554  0.6002007726994167  1.0000
  C   C3        1.0  0.007658271368391898  0.901760531091725  0.6002009519285922  1.0000
  C   C4        1.0  0.5076607220150393  0.5982425878683844  0.3997984920887562  1.0000
  C   C5        1.0  0.9017577449696503  0.9923400898953931  0.10020208327284762  1.0000
  C   C6        1.0  0.4017583499156244  0.5076580131369044  0.899799037356914  1.0000
  C   C7        1.0  0.5982427614312441  0.49234060610698566  0.8997983923222677  1.0000
  C   C8        1.0  0.4923419234151112  0.40175952117366626  0.3997985403792655  1.0000
  C   C9        1.0  0.9017598934534516  0.992343271651784  0.8997997783516923  1.0000
  C   C10       1.0  0.007659356873858799  0.9017568144113997  0.399798249798252  1.0000
  C   C11       1.0  0.9923419900257782  0.09824139904250022  0.3997987826704091  1.0000
  C   C12       1.0  0.4923395393785483  0.4017567452072656  0.6002012425109484  1.0000
  C   C13       1.0  0.09824251642422868  0.007660541709547901  0.8997976513265019  1.0000
  C   C14       1.0  0.5982419114787161  0.49234131993811314  0.10020140934517492  1.0000
  C   C15       1.0  0.401758798492736  0.5076587269683304  0.10020205438024021  1.0000
  C   C16       1.0  0.5076583379784694  0.5982398119019906  0.600201194220439  1.0000
  S   S1        1.0  0.19843347535897485  0.8966595942722863  0.999999505890351  1.0000
  S   S2        1.0  0.1033401619827927  0.1984356282699693  0.49999982192230874  1.0000
  S   S3        1.0  0.8966588008817381  0.8015663018639644  0.49999991267627314  1.0000
  S   S4        1.0  0.3966612392926124  0.6984343959224832  0.5000004925852934  1.0000
  S   S5        1.0  0.8015652519509898  0.10334144312362532  0.9999992017143386  1.0000
  S   S6        1.0  0.3015651830324941  0.3966596177173828  0.9999996742871318  1.0000
  S   S7        1.0  0.6984337798317453  0.6033410138872669  6.031180529999994e-08  1.0000
  S   S8        1.0  0.603339022100968  0.3015649371531738  0.4999992420144111  1.0000
  F   F1        1.0  0.5002576401868808  0.8498406122839911  0.19159819833178202  1.0000
  F   F2        1.0  0.15015762149759843  0.5002513310798876  0.6916001597279903  1.0000
  F   F3        1.0  0.849843047226912  0.49974376431101325  0.6915989597226045  1.0000
  F   F4        1.0  0.3498423915384166  0.00025431550864849997  0.3084009741937735  1.0000
  F   F5        1.0  0.49974196555890416  0.15015927143630853  0.19159767549691514  1.0000
  F   F6        1.0  0.999740204651836  0.34984277174608286  0.8084037786278062  1.0000
  F   F7        1.0  0.0002555182731000999  0.6501586077410552  0.8084012409453154  1.0000
  F   F8        1.0  0.6501561639965772  0.9997479567202775  0.3084015118621366  1.0000
  F   F9        1.0  0.4997452182672006  0.15015742226169246  0.8084029604738775  1.0000
  F   F10       1.0  0.8498413413654616  0.4997441064076186  0.3083995748723539  1.0000
  F   F11       1.0  0.15015591564023367  0.500252971702601  0.3084043353893193  1.0000
  F   F12       1.0  0.6501565713265762  0.9997463160953618  0.6915994725075479  1.0000
  F   F13       1.0  0.5002569973068489  0.8498413601670692  0.8084034833067975  1.0000
  F   F14       1.0  0.00025875821467740003  0.6501578598566553  0.19159809227829075  1.0000
  F   F15       1.0  0.9997486387099813  0.349843322394051  0.1915984936549364  1.0000
  F   F16       1.0  0.3498427988684227  0.00025267488373260005  0.6915989348391848  1.0000
