data_image0
_chemical_formula_structural       Sm4H32C32O32
_chemical_formula_sum              "Sm4 H32 C32 O32"
_cell_length_a       8.947107568478376
_cell_length_b       10.519844516093672
_cell_length_c       12.252421595161664
_cell_angle_alpha    89.9996350710322
_cell_angle_beta     90.00053034344415
_cell_angle_gamma    102.5974465695996

_space_group_name_H-M_alt    "P 1"
_space_group_IT_number       1

loop_
  _space_group_symop_operation_xyz
  'x, y, z'

loop_
  _atom_site_type_symbol
  _atom_site_label
  _atom_site_symmetry_multiplicity
  _atom_site_fract_x
  _atom_site_fract_y
  _atom_site_fract_z
  _atom_site_occupancy
  Sm  Sm1       1.0  0.6179762549782524  0.31508960235905187  0.4024930911445849  1.0000
  Sm  Sm2       1.0  0.3820260107323321  0.6849114664624806  0.9024936662963297  1.0000
  Sm  Sm3       1.0  0.9348978931636652  0.1195054784092093  0.5026561213510803  1.0000
  Sm  Sm4       1.0  0.06510183075980085  0.8804967382111429  0.0026585121611191  1.0000
  H   H1        1.0  0.6581040742517673  0.35236327293359426  0.139869122376993  1.0000
  H   H2        1.0  0.3418996886778771  0.6476391803228266  0.639870446164494  1.0000
  H   H3        1.0  0.5630646056633068  0.44183908097329544  0.19714050031708294  1.0000
  H   H4        1.0  0.4369392974875907  0.5581611193192587  0.6971421395021619  1.0000
  H   H5        1.0  0.2991721219898338  0.12797354742673414  0.3757598503197811  1.0000
  H   H6        1.0  0.7008343085702579  0.8720276499596905  0.8757615578632211  1.0000
  H   H7        1.0  0.31269574184049986  0.23030357659906286  0.2803327661723287  1.0000
  H   H8        1.0  0.6873087464857335  0.7696991063051966  0.7803333092914285  1.0000
  H   H9        1.0  0.014748287646078495  0.06796105910002129  0.7500630192803611  1.0000
  H   H10       1.0  0.9852506300398645  0.9320388766335481  0.25006481936322433  1.0000
  H   H11       1.0  0.8381055581241769  0.043260087747143  0.7254176810503593  1.0000
  H   H12       1.0  0.16188962857818012  0.9567438890663454  0.22541786091480273  1.0000
  H   H13       1.0  0.2502570586511652  0.3216368100245788  0.5483805418969181  1.0000
  H   H14       1.0  0.7497419137152191  0.6783602930387644  0.04837887185344408  1.0000
  H   H15       1.0  0.1606289048471581  0.2977529088254727  0.6620508949056898  1.0000
  H   H16       1.0  0.839369880586368  0.7022465180191944  0.16205051636874396  1.0000
  H   H17       1.0  0.52183523311966  0.7556530612488218  0.3548797495884699  1.0000
  H   H18       1.0  0.4781605046545324  0.24434243065340416  0.8548833827888273  1.0000
  H   H19       1.0  0.38658122606284445  0.9377182353502317  0.38107443277559117  1.0000
  H   H20       1.0  0.6134136911328413  0.06227712054052151  0.881075078489651  1.0000
  H   H21       1.0  0.012765303394218093  0.6740800473833062  0.536304428105815  1.0000
  H   H22       1.0  0.9872307913879512  0.3259151787932879  0.0363046576655393  1.0000
  H   H23       1.0  0.14924570770307347  0.4921017451319258  0.5131883239235434  1.0000
  H   H24       1.0  0.8507522573545573  0.507897496779357  0.013189084651180797  1.0000
  H   H25       1.0  0.1611010297477051  0.3678336230976029  0.1854273734335479  1.0000
  H   H26       1.0  0.8389029946794865  0.6321676135755394  0.6854313254280342  1.0000
  H   H27       1.0  0.039853554673385375  0.6160041425901  0.22971875405666953  1.0000
  H   H28       1.0  0.9601514780709904  0.3839988063367202  0.7297208013783916  1.0000
  H   H29       1.0  0.4978848682851406  0.9059545611293982  0.7043554790941327  1.0000
  H   H30       1.0  0.502109928426613  0.0940446542327535  0.20436022591836425  1.0000
  H   H31       1.0  0.29443783005146434  0.1032272493935054  0.6601094056770902  1.0000
  H   H32       1.0  0.7055605778103171  0.8967751133059919  0.16010950777884148  1.0000
  C   C1        1.0  0.34547605363867717  0.6138496578583386  0.4339602347951724  1.0000
  C   C2        1.0  0.6545149944442771  0.38614543024022646  0.9339569396051387  1.0000
  C   C3        1.0  0.4105257872689236  0.7389220115460091  0.3947947938672344  1.0000
  C   C4        1.0  0.5894676608365402  0.2610713266899651  0.8947933749238002  1.0000
  C   C5        1.0  0.33452377927871885  0.8398761543993062  0.40912775413478636  1.0000
  C   C6        1.0  0.6654710995497766  0.16012197765518005  0.9091290331146664  1.0000
  C   C7        1.0  0.19207256770768313  0.8165684221736671  0.46184997528916216  1.0000
  C   C8        1.0  0.807922907329271  0.1834294291971474  0.961848825199638  1.0000
  C   C9        1.0  0.12513682756334524  0.6908078211273646  0.49823310459028386  1.0000
  C   C10       1.0  0.8748574346950663  0.3091878919219866  0.998234168082433  1.0000
  C   C11       1.0  0.2016277256479526  0.5900442061296829  0.48527048680863766  1.0000
  C   C12       1.0  0.7983630396600248  0.40995158624484423  0.9852737470847756  1.0000
  C   C13       1.0  0.43073996754536387  0.5075650018411935  0.4218840171523936  1.0000
  C   C14       1.0  0.5692538368458315  0.4924369652900963  0.9218836454292114  1.0000
  C   C15       1.0  0.10970576801006626  0.9232564777581093  0.4820535745846754  1.0000
  C   C16       1.0  0.8902885649868466  0.076740295464063  0.9820519321335935  1.0000
  C   C17       1.0  0.9910912732751243  0.3674595964498479  0.31573176863915353  1.0000
  C   C18       1.0  0.008916712018717021  0.632541913645973  0.8157325562529462  1.0000
  C   C19       1.0  0.09223865575705761  0.428449593828887  0.22515381563709266  1.0000
  C   C20       1.0  0.9077704368858265  0.5715562911729676  0.7251520351614927  1.0000
  C   C21       1.0  0.1038807339540426  0.5511528974365377  0.19102312371995817  1.0000
  C   C22       1.0  0.8961254854254577  0.4488522021195749  0.6910243837292638  1.0000
  C   C23       1.0  0.20032654487528123  0.600792604014181  0.09590007730895418  1.0000
  C   C24       1.0  0.799679817460394  0.39920909898883383  0.5959001405080286  1.0000
  C   C25       1.0  0.5583410193362397  0.055227137297244204  0.5774067778312569  1.0000
  C   C26       1.0  0.4416568088742494  0.9447727401899331  0.07740564971271618  1.0000
  C   C27       1.0  0.457874903749584  0.9851572538262304  0.6648502837006304  1.0000
  C   C28       1.0  0.5421274155618647  0.0148470213600334  0.1648532854371965  1.0000
  C   C29       1.0  0.3318449641798011  0.022382223437574598  0.6994179009505572  1.0000
  C   C30       1.0  0.6681572385843495  0.9776199196666012  0.19941812445307508  1.0000
  C   C31       1.0  0.24401828955129176  0.9617884926519761  0.795047560500137  1.0000
  C   C32       1.0  0.755982507354588  0.03821217417987549  0.2950469832152933  1.0000
  O   O1        1.0  0.5400447156162188  0.5205054244232699  0.3530799933894356  1.0000
  O   O2        1.0  0.45995054427448423  0.47949690213502555  0.8530805858185598  1.0000
  O   O3        1.0  0.3958383668802483  0.4049655754566856  0.4813907835965947  1.0000
  O   O4        1.0  0.604161948123945  0.595037031697899  0.9813884546920731  1.0000
  O   O5        1.0  0.159860029568236  0.036810444620407196  0.4396890317590091  1.0000
  O   O6        1.0  0.8401361598454358  0.9631826477081449  0.9396928150891595  1.0000
  O   O7        1.0  0.9897686669664839  0.9020195980312808  0.5406727750826548  1.0000
  O   O8        1.0  0.010227375309703687  0.09797950444050225  0.04067091054213989  1.0000
  O   O9        1.0  0.8704191962574654  0.4088433300668157  0.3352637129862685  1.0000
  O   O10       1.0  0.12958875619084148  0.5911571020168935  0.8352639102361863  1.0000
  O   O11       1.0  0.035938731749247686  0.2759978816665267  0.3656609602896665  1.0000
  O   O12       1.0  0.9640629656093724  0.7239985096728245  0.8656619917664158  1.0000
  O   O13       1.0  0.1833340776334538  0.7077171745037134  0.05117550756138199  1.0000
  O   O14       1.0  0.8166740125040377  0.2922847597315226  0.5511754539238181  1.0000
  O   O15       1.0  0.2939784766066893  0.538470403985741  0.056545894885580594  1.0000
  O   O16       1.0  0.7060255627051861  0.46152858990311785  0.5565433519998207  1.0000
  O   O17       1.0  0.5146041876511447  0.14537381399355098  0.5257251714598965  1.0000
  O   O18       1.0  0.4853957971435179  0.8546282798135679  0.025725647918250195  1.0000
  O   O19       1.0  0.6845949020418232  0.019176918861951695  0.5637144997094764  1.0000
  O   O20       1.0  0.31540388811547604  0.9808230280831794  0.06371313721487577  1.0000
  O   O21       1.0  0.1359378618733871  0.012029376679116402  0.8317486586548455  1.0000
  O   O22       1.0  0.8640617258443373  0.9879691501409767  0.3317493337624028  1.0000
  O   O23       1.0  0.2777068759225684  0.8642008673691775  0.8435346826899917  1.0000
  O   O24       1.0  0.7222942155927824  0.13579856729093354  0.3435349765845075  1.0000
  O   O25       1.0  0.5849563474999896  0.3547232341769089  0.1986572473243342  1.0000
  O   O26       1.0  0.415051430605928  0.6452788957834059  0.6986558138534917  1.0000
  O   O27       1.0  0.37403782080666304  0.1858982056148619  0.32612241053193697  1.0000
  O   O28       1.0  0.6259666778959315  0.8141022854540554  0.8261231124209374  1.0000
  O   O29       1.0  0.9359191531360482  0.09989937822606981  0.7059490524269091  1.0000
  O   O30       1.0  0.06407779326504934  0.9001037213280084  0.20595051298873554  1.0000
  O   O31       1.0  0.16151257703143776  0.2649763579491022  0.5880394957045638  1.0000
  O   O32       1.0  0.8384856251489339  0.7350244369552995  0.088038932030841  1.0000
