data_image0
_chemical_formula_structural       Cd3H36C42N8Cl6O2
_chemical_formula_sum              "Cd3 H36 C42 N8 Cl6 O2"
_cell_length_a       10.42500793979834
_cell_length_b       10.796017267241314
_cell_length_c       11.756421619696951
_cell_angle_alpha    83.30185722854999
_cell_angle_beta     63.979635840619466
_cell_angle_gamma    74.35072641372358

_space_group_name_H-M_alt    "P 1"
_space_group_IT_number       1

loop_
  _space_group_symop_operation_xyz
  'x, y, z'

loop_
  _atom_site_type_symbol
  _atom_site_label
  _atom_site_symmetry_multiplicity
  _atom_site_fract_x
  _atom_site_fract_y
  _atom_site_fract_z
  _atom_site_occupancy
  Cd  Cd1       1.0  1.7578676362426763e-06  0.9999897689830489  0.9999981442039356  1.0000
  Cd  Cd2       1.0  0.0632393054686275  0.6531372183268331  0.9892126941182368  1.0000
  Cd  Cd3       1.0  0.9367705415354874  0.3468466524660557  0.010786012299263166  1.0000
  H   H1        1.0  0.42597269896739914  0.5171247546365124  0.24119955805254986  1.0000
  H   H2        1.0  0.574045160019807  0.48286642583381223  0.7588071089121795  1.0000
  H   H3        1.0  0.5353432265367175  0.2865123127556685  0.1747239888732679  1.0000
  H   H4        1.0  0.46468649289572267  0.7134831086043077  0.825276711689831  1.0000
  H   H5        1.0  0.4576140933840021  0.1983984276100301  0.03247182311908864  1.0000
  H   H6        1.0  0.5424227681180865  0.8015938468761662  0.9675306810637209  1.0000
  H   H7        1.0  0.28032748004412156  0.34774260400810414  0.956712602587821  1.0000
  H   H8        1.0  0.7196878359054821  0.6522363473732896  0.043304070091288255  1.0000
  H   H9        1.0  0.1373464919244114  0.6784832723360593  0.44635459808684885  1.0000
  H   H10       1.0  0.8626588285932467  0.32152082146542676  0.5536564015473573  1.0000
  H   H11       1.0  0.24592049167365096  0.6300117507594932  0.6026618657568079  1.0000
  H   H12       1.0  0.7541014388197311  0.3699801728937615  0.3973346178576661  1.0000
  H   H13       1.0  0.6209814548388691  0.7681136707453504  0.3375993424203968  1.0000
  H   H14       1.0  0.37901555200735254  0.23190304759029354  0.6623862967521601  1.0000
  H   H15       1.0  0.5115665596267575  0.8202204788154643  0.18495230424458234  1.0000
  H   H16       1.0  0.4884190555514109  0.1797805810547359  0.8150454855123427  1.0000
  H   H17       1.0  0.5316426644773458  0.7477481681621186  0.5962024174407073  1.0000
  H   H18       1.0  0.468365815389454  0.25226523212166546  0.4037876007308866  1.0000
  H   H19       1.0  0.6134216364763958  0.5899247934603622  0.534664914148159  1.0000
  H   H20       1.0  0.38657847454053496  0.4100833053915948  0.4653408779540199  1.0000
  H   H21       1.0  0.43358203050253497  0.6256062793521265  0.6617401636253318  1.0000
  H   H22       1.0  0.5664162981880451  0.37441422595731677  0.3382547457257984  1.0000
  H   H23       1.0  0.2631646887753192  0.057143493684662906  0.17933377567634065  1.0000
  H   H24       1.0  0.7368164395370582  0.9428492331087454  0.8206760511182408  1.0000
  H   H25       1.0  0.06819097845010447  0.0919791263084946  0.23420599667876016  1.0000
  H   H26       1.0  0.9317905206112512  0.9080163742852462  0.7657863655909123  1.0000
  H   H27       1.0  0.12236271064200818  0.25979853326982294  0.27870636220512773  1.0000
  H   H28       1.0  0.877620282939524  0.7402092771239882  0.7212857528540937  1.0000
  H   H29       1.0  0.10815177487548769  0.443831057445884  0.39245115124239044  1.0000
  H   H30       1.0  0.8918659496827813  0.5561790407322958  0.6075228518837079  1.0000
  H   H31       1.0  0.118510351903069  0.41368747289332214  0.6028050200647923  1.0000
  H   H32       1.0  0.881501532875454  0.5863295374658009  0.39717050542087384  1.0000
  H   H33       1.0  0.15074251708176686  0.19384856667726064  0.6942892938273103  1.0000
  H   H34       1.0  0.8492394053785262  0.8061735993751501  0.30571185865404243  1.0000
  H   H35       1.0  0.16812767296117664  0.006175644430612704  0.5789070799495164  1.0000
  H   H36       1.0  0.8318339614553096  0.9938416808701831  0.4211000043624436  1.0000
  C   C1        1.0  0.1726084264208295  0.8957667521031142  0.20022178940879337  1.0000
  C   C2        1.0  0.8273720661108327  0.10422410906050321  0.7997910448384429  1.0000
  C   C3        1.0  0.22973820331507258  0.6900265431827747  0.15776193491933543  1.0000
  C   C4        1.0  0.7702642951657594  0.3099662142241399  0.8422403675003592  1.0000
  C   C5        1.0  0.29676177763433736  0.552052041055525  0.13316875319939203  1.0000
  C   C6        1.0  0.7032455120235426  0.44793865145136635  0.8668438094609383  1.0000
  C   C7        1.0  0.3959885399000669  0.47639018195731336  0.17874051297236795  1.0000
  C   C8        1.0  0.6040245865734943  0.5236031284129581  0.8212737263496094  1.0000
  C   C9        1.0  0.45605480319220953  0.3474050739839072  0.14193005705906353  1.0000
  C   C10       1.0  0.5439667452929271  0.6525888300578587  0.8580825184912795  1.0000
  C   C11       1.0  0.4141995543048367  0.29874704365114707  0.06238869400966248  1.0000
  C   C12       1.0  0.5858239463889702  0.7012429736641792  0.9376243977313904  1.0000
  C   C13       1.0  0.3152299312538673  0.38113704839516765  0.02015964652972707  1.0000
  C   C14       1.0  0.6847791266775898  0.6188459887478501  0.9798615771212906  1.0000
  C   C15       1.0  0.3193817874479237  0.7491691036468637  0.30678069415473885  1.0000
  C   C16       1.0  0.6806142410594233  0.25082870650167177  0.6932278364198509  1.0000
  C   C17       1.0  0.2439562561598691  0.6962959882724605  0.42350805797003943  1.0000
  C   C18       1.0  0.7560447363709313  0.30369874666277497  0.5764971672636108  1.0000
  C   C19       1.0  0.3052587308156022  0.6696737861560464  0.5102342987662638  1.0000
  C   C20       1.0  0.6947549979167318  0.3303213527011977  0.48976674304712026  1.0000
  C   C21       1.0  0.44180459699970936  0.6942003661318311  0.48081612784697797  1.0000
  C   C22       1.0  0.5582073466127895  0.3058071760876615  0.5191731820440209  1.0000
  C   C23       1.0  0.5146755817034502  0.7482953530088707  0.36274346864211526  1.0000
  C   C24       1.0  0.485325984980598  0.2517107126005484  0.637244115562211  1.0000
  C   C25       1.0  0.4538566775189068  0.7769283230941113  0.27547841686062213  1.0000
  C   C26       1.0  0.5461325907564569  0.22308018667925475  0.7245162663509318  1.0000
  C   C27       1.0  0.5083938223363588  0.6625506283740492  0.5737829793500779  1.0000
  C   C28       1.0  0.4916112106310138  0.33746388197565125  0.42621081803380173  1.0000
  C   C29       1.0  0.1635886100507236  0.023752736127058  0.24281169828486068  1.0000
  C   C30       1.0  0.8363853733132272  0.9762479010146733  0.7571974998149498  1.0000
  C   C31       1.0  0.14491071818603973  0.1211551726308784  0.42301677544477906  1.0000
  C   C32       1.0  0.8550586746116409  0.8788560831894968  0.5769811367386594  1.0000
  C   C33       1.0  0.13026066832571098  0.24365678695393467  0.36882642971009005  1.0000
  C   C34       1.0  0.8697242606182343  0.7563518847118047  0.6311631306081436  1.0000
  C   C35       1.0  0.12103750395632316  0.3483660073379156  0.4342662196624828  1.0000
  C   C36       1.0  0.8789711431698918  0.6516463764421161  0.5657085345848926  1.0000
  C   C37       1.0  0.12610841425682648  0.33199849092263634  0.5517421634722338  1.0000
  C   C38       1.0  0.8738924577272229  0.66801994376641  0.4482366678756972  1.0000
  C   C39       1.0  0.1437836004208251  0.2083935683992095  0.6035596592658762  1.0000
  C   C40       1.0  0.8562039134631545  0.7916273787839785  0.3964326329078958  1.0000
  C   C41       1.0  0.15346934327240544  0.10294923245143653  0.539867572413442  1.0000
  C   C42       1.0  0.8465035019264063  0.8970656860632715  0.46013028299663705  1.0000
  N   N1        1.0  0.10778165268941815  0.8800892138139034  0.13001363658549536  1.0000
  N   N2        1.0  0.8922145823568569  0.11989809002461267  0.8699874702709137  1.0000
  N   N3        1.0  0.14258447860363072  0.753416377028465  0.1046786753834965  1.0000
  N   N4        1.0  0.857423614179673  0.24657039803469163  0.8953135918036778  1.0000
  N   N5        1.0  0.2510438425637956  0.7773965056653722  0.22049098074170803  1.0000
  N   N6        1.0  0.7489420461118923  0.2225988887502055  0.7795217895051748  1.0000
  N   N7        1.0  0.2582389886177835  0.5045988043961529  0.054153434119342564  1.0000
  N   N8        1.0  0.7417700609331845  0.4953842234611656  0.9458652420176958  1.0000
  Cl  Cl1       1.0  0.8983061564378044  0.506051629251715  0.1711309608464049  1.0000
  Cl  Cl2       1.0  0.10171016324800058  0.4939319584645644  0.8288643906838116  1.0000
  Cl  Cl3       1.0  0.8205242061713702  0.8432680172955712  0.06347569794402826  1.0000
  Cl  Cl4       1.0  0.1794796004422138  0.156714211899633  0.9365255565087834  1.0000
  Cl  Cl5       1.0  0.8205315368827825  0.1721410635685956  0.18038379722040773  1.0000
  Cl  Cl6       1.0  0.17945537813293555  0.8278446922344145  0.8196083729593793  1.0000
  O   O1        1.0  0.149862800686769  0.012605239288312501  0.3692166718096601  1.0000
  O   O2        1.0  0.8500926011088978  0.9874018999218847  0.6307965337273415  1.0000
