data_image0
_chemical_formula_structural       Cu4P4H36C12O16
_chemical_formula_sum              "Cu4 P4 H36 C12 O16"
_cell_length_a       7.438096826667233
_cell_length_b       7.51387955212446
_cell_length_c       11.799470399295531
_cell_angle_alpha    90.00061551153034
_cell_angle_beta     99.25113297136447
_cell_angle_gamma    90.00012858526354

_space_group_name_H-M_alt    "P 1"
_space_group_IT_number       1

loop_
  _space_group_symop_operation_xyz
  'x, y, z'

loop_
  _atom_site_type_symbol
  _atom_site_label
  _atom_site_symmetry_multiplicity
  _atom_site_fract_x
  _atom_site_fract_y
  _atom_site_fract_z
  _atom_site_occupancy
  Cu  Cu1       1.0  0.4393115897131565  0.18932239985493032  0.03544605069984638  1.0000
  Cu  Cu2       1.0  0.060676056969327916  0.6893125721307953  0.9645424836355615  1.0000
  Cu  Cu3       1.0  0.5606738208887238  0.810689809239008  0.9645504207910847  1.0000
  Cu  Cu4       1.0  0.9393216502658247  0.31069032090704246  0.035456820840586475  1.0000
  P   P1        1.0  0.114099684405474  0.0522640367592544  0.8638583045575883  1.0000
  P   P2        1.0  0.3859177685107296  0.5522728499145444  0.13615069244096387  1.0000
  P   P3        1.0  0.8858994041216163  0.9477401871586723  0.13614197532010047  1.0000
  P   P4        1.0  0.6140827784049775  0.4477247196897451  0.8638539602671002  1.0000
  H   H1        1.0  0.025238602855196697  0.13433839642595297  0.6675671171991268  1.0000
  H   H2        1.0  0.4747557745694522  0.6343334075606891  0.3324284426102935  1.0000
  H   H3        1.0  0.9747659144390682  0.8656671583651772  0.3324328174478879  1.0000
  H   H4        1.0  0.5252378659035627  0.3656654928656168  0.6675713331190919  1.0000
  H   H5        1.0  0.10980575038335869  0.8149415024025116  0.6532907361967019  1.0000
  H   H6        1.0  0.39018667016561887  0.31494583362302114  0.346705884194769  1.0000
  H   H7        1.0  0.8901919568376612  0.1850547362832486  0.3467085682552664  1.0000
  H   H8        1.0  0.6098151616556109  0.6850557285662545  0.653295497102185  1.0000
  H   H9        1.0  0.3342989467615638  0.8587598827041915  0.7205183256836207  1.0000
  H   H10       1.0  0.16570311686438546  0.35876127755017967  0.2794760979343849  1.0000
  H   H11       1.0  0.6657042085078757  0.1412390177323601  0.2794814829069736  1.0000
  H   H12       1.0  0.8343014389669179  0.6412349611624109  0.7205255354077024  1.0000
  H   H13       1.0  0.25443049615555674  0.19048984917698417  0.7219242185299563  1.0000
  H   H14       1.0  0.24556966421150153  0.6904847931148125  0.27807650033592063  1.0000
  H   H15       1.0  0.7455754217090557  0.8095170365014255  0.27807754088306064  1.0000
  H   H16       1.0  0.7544253960933106  0.30950745298346766  0.7219259494949171  1.0000
  H   H17       1.0  0.16384059274191998  0.014706400370762701  0.48619528710432286  1.0000
  H   H18       1.0  0.33614652434101794  0.5147121673150322  0.5138013211981373  1.0000
  H   H19       1.0  0.8361516086095689  0.9852938308947116  0.5138009651398078  1.0000
  H   H20       1.0  0.6638525448991716  0.4852880639844627  0.4861981093005809  1.0000
  H   H21       1.0  0.38817627672187166  0.054936793342861306  0.5581004949704748  1.0000
  H   H22       1.0  0.11181768633817062  0.5549382143952002  0.4418910903182435  1.0000
  H   H23       1.0  0.6118254394260487  0.9450634379328662  0.44189579013485764  1.0000
  H   H24       1.0  0.8881854882068582  0.44505935517813106  0.5581095676319805  1.0000
  H   H25       1.0  0.3241507063008058  0.8377329920184523  0.5085045155289549  1.0000
  H   H26       1.0  0.17583764791814355  0.3377406483081415  0.4914884949672213  1.0000
  H   H27       1.0  0.6758456003526944  0.16226324665043282  0.49149296416184274  1.0000
  H   H28       1.0  0.8241710325133694  0.6622609139079643  0.5085152152198588  1.0000
  H   H29       1.0  0.39933244582461913  0.9324228154104333  0.15108089075783226  1.0000
  H   H30       1.0  0.10066594102816141  0.4324137220189286  0.8489179369254883  1.0000
  H   H31       1.0  0.6006640150703221  0.0675800776680404  0.848923383872858  1.0000
  H   H32       1.0  0.8993330896439036  0.567581185784526  0.1510797948249589  1.0000
  H   H33       1.0  0.2359331411503334  0.0686798435091518  0.1610581880638549  1.0000
  H   H34       1.0  0.26407060712153907  0.5686709840433223  0.8389428729414873  1.0000
  H   H35       1.0  0.7640646046331696  0.9313190569318124  0.8389428151267139  1.0000
  H   H36       1.0  0.7359284428374124  0.4313279163785709  0.16105570818793064  1.0000
  C   C1        1.0  0.21809871326767896  0.9160772013231337  0.6628609473449885  1.0000
  C   C2        1.0  0.28190230890951534  0.4160731587028009  0.3371371642577472  1.0000
  C   C3        1.0  0.7818989939618178  0.08392302997386739  0.3371383571214892  1.0000
  C   C4        1.0  0.7180995228975817  0.5839217491343973  0.6628642170150272  1.0000
  C   C5        1.0  0.2762301140582579  0.9578696122992341  0.5474905032018212  1.0000
  C   C6        1.0  0.2237626822427359  0.4578713875437899  0.45249696359982033  1.0000
  C   C7        1.0  0.7237674582280035  0.04213328068828299  0.4525028557230825  1.0000
  C   C8        1.0  0.7762417772021591  0.5421275128736981  0.5475004229296231  1.0000
  C   C9        1.0  0.1523103091427203  0.08344913151830008  0.7179021714846954  1.0000
  C   C10       1.0  0.3476840256404187  0.5834483501296858  0.2821006627600297  1.0000
  C   C11       1.0  0.8476956279946536  0.9165550924264637  0.2821004372831126  1.0000
  C   C12       1.0  0.6523136815806012  0.41654788855607444  0.7178986416919387  1.0000
  O   O1        1.0  0.3730413553120613  0.0582353996033191  0.17093389303119716  1.0000
  O   O2        1.0  0.1269637684524909  0.5582314094153915  0.8290697662078728  1.0000
  O   O3        1.0  0.6269605343472406  0.9417674934779328  0.8290700363639942  1.0000
  O   O4        1.0  0.8730422265229478  0.4417741454213484  0.17093539065816535  1.0000
  O   O5        1.0  0.29665753117180327  0.005034946099918599  0.9405494455160692  1.0000
  O   O6        1.0  0.20335409956327768  0.5050327658057867  0.059451059775177784  1.0000
  O   O7        1.0  0.7033429579199719  0.9949679469644651  0.05945265911795158  1.0000
  O   O8        1.0  0.7966517797218913  0.4949634728949235  0.9405490008702272  1.0000
  O   O9        1.0  0.0297111926783415  0.2300272509383561  0.8961084667960504  1.0000
  O   O10       1.0  0.4702877736562315  0.7300410201357436  0.1038924134614945  1.0000
  O   O11       1.0  0.9702975648668327  0.7699743113065052  0.1038986408488825  1.0000
  O   O12       1.0  0.5297085137301564  0.2699605420076168  0.8961042168841898  1.0000
  O   O13       1.0  0.9791537871436943  0.8952782232030856  0.8676716007030193  1.0000
  O   O14       1.0  0.5208485449185644  0.3952848157817002  0.1323232960641008  1.0000
  O   O15       1.0  0.0208519957437545  0.10471535372084873  0.1323242131103939  1.0000
  O   O16       1.0  0.47915190561355553  0.6047167463978907  0.8676771098361584  1.0000
