data_image0
_chemical_formula_structural       Ag4B4H28C24N36
_chemical_formula_sum              "Ag4 B4 H28 C24 N36"
_cell_length_a       6.571385548020622
_cell_length_b       12.71988360003869
_cell_length_c       12.968601888001787
_cell_angle_alpha    90.00002043870539
_cell_angle_beta     89.99994426421112
_cell_angle_gamma    89.99971815749525

_space_group_name_H-M_alt    "P 1"
_space_group_IT_number       1

loop_
  _space_group_symop_operation_xyz
  'x, y, z'

loop_
  _atom_site_type_symbol
  _atom_site_label
  _atom_site_symmetry_multiplicity
  _atom_site_fract_x
  _atom_site_fract_y
  _atom_site_fract_z
  _atom_site_occupancy
  Ag  Ag1       1.0  0.9660554084924372  0.21592765526282418  0.10833838969472251  1.0000
  Ag  Ag2       1.0  0.4660584494173321  0.7840735695497403  0.8916620623080576  1.0000
  Ag  Ag3       1.0  0.466047086811912  0.7159274144764467  0.3916605810348345  1.0000
  Ag  Ag4       1.0  0.9660561188639321  0.2840714518377822  0.6083414131564098  1.0000
  B   B1        1.0  0.6914641420940485  0.027192814527076302  0.26234808599677  1.0000
  B   B2        1.0  0.19146416376007383  0.9728067494439968  0.7376524993997863  1.0000
  B   B3        1.0  0.19146220735303388  0.5271917313575115  0.23765095231478742  1.0000
  B   B4        1.0  0.6914645767579943  0.47280704644435895  0.7623473198025651  1.0000
  H   H1        1.0  0.5788684910227461  0.5385978924808442  0.7985771699813712  1.0000
  H   H2        1.0  0.0788683404975856  0.4614011713963323  0.2014211568333977  1.0000
  H   H3        1.0  0.07886682344640408  0.0385970791112058  0.7014233236085801  1.0000
  H   H4        1.0  0.5788715298207664  0.9614019847644567  0.29857731648525043  1.0000
  H   H5        1.0  0.20538688881404002  0.433272572122128  0.0014273190603332998  1.0000
  H   H6        1.0  0.7053848602147853  0.5667245979649564  0.9985717173865041  1.0000
  H   H7        1.0  0.7053836016419341  0.9332742446550243  0.498571082990651  1.0000
  H   H8        1.0  0.20538358213512  0.0667237116087094  0.5014287245505784  1.0000
  H   H9        1.0  0.6764259052315182  0.2829594405364944  0.8950932883344083  1.0000
  H   H10       1.0  0.1764250297877723  0.7170409478147873  0.10490730436791303  1.0000
  H   H11       1.0  0.1764242290158933  0.7829583089226375  0.6049064719760793  1.0000
  H   H12       1.0  0.6764236625111977  0.21704050709136175  0.3950956629129934  1.0000
  H   H13       1.0  0.15892080051341398  0.9625479153142678  0.0044038421576644  1.0000
  H   H14       1.0  0.658919253102006  0.037455662196208606  0.9955936746765844  1.0000
  H   H15       1.0  0.6589177157333168  0.46255222829469034  0.49559690595383205  1.0000
  H   H16       1.0  0.15891777262059747  0.5374537077343007  0.5044036952545099  1.0000
  H   H17       1.0  0.7094871060934551  0.8154287637579503  0.18254856068876532  1.0000
  H   H18       1.0  0.20947926178462237  0.18457232677248206  0.8174504737683251  1.0000
  H   H19       1.0  0.20948825604745022  0.3154272065578638  0.31745365374369083  1.0000
  H   H20       1.0  0.7094841988240008  0.6845738839653992  0.6825484650845014  1.0000
  H   H21       1.0  0.4804175247962021  0.33627921642283803  0.10903251246539723  1.0000
  H   H22       1.0  0.9804223907564448  0.6637203995556149  0.8909687036528524  1.0000
  H   H23       1.0  0.9804068384587837  0.8362777050127547  0.39096572215960634  1.0000
  H   H24       1.0  0.480419381367753  0.163718766300093  0.6090347228682732  1.0000
  H   H25       1.0  0.2583711719663384  0.058937362801899006  0.2453903163094893  1.0000
  H   H26       1.0  0.7583706186699716  0.941061245005521  0.7546110076775039  1.0000
  H   H27       1.0  0.7583653164371925  0.558935801623349  0.25460870056921453  1.0000
  H   H28       1.0  0.2583688654566529  0.4410628061931803  0.7453895390470536  1.0000
  C   C1        1.0  0.06929754419532941  0.41522951532930824  0.957368483339373  1.0000
  C   C2        1.0  0.5692956837322426  0.5847687866969551  0.0426313903114277  1.0000
  C   C3        1.0  0.5692951449919762  0.9152294491284039  0.5426306040411077  1.0000
  C   C4        1.0  0.0692965611887502  0.08476806672936019  0.45737081179621003  1.0000
  C   C5        1.0  0.8028160289301098  0.3377019208456672  0.9036439190501542  1.0000
  C   C6        1.0  0.3028156914893572  0.662298932550229  0.0963558411600829  1.0000
  C   C7        1.0  0.3028158911125303  0.8377015722800962  0.5963557989492685  1.0000
  C   C8        1.0  0.8028127858139769  0.1622977087786523  0.4036462745408684  1.0000
  C   C9        1.0  0.0373832809082302  0.9481053375166938  0.059382810310602004  1.0000
  C   C10       1.0  0.5373786595272989  0.051897762623006806  0.9406147655658617  1.0000
  C   C11       1.0  0.5373742162149783  0.44810805809881776  0.440615678528225  1.0000
  C   C12       1.0  0.037378593717761505  0.5518966143940531  0.5593826684438739  1.0000
  C   C13       1.0  0.8125077624457758  0.8719370053342387  0.14808145308455073  1.0000
  C   C14       1.0  0.3125003891799665  0.12806382344635384  0.8519183024192503  1.0000
  C   C15       1.0  0.31250580177343323  0.3719362468869747  0.35191918882000556  1.0000
  C   C16       1.0  0.8125038716044058  0.6280637957211114  0.6480813377764322  1.0000
  C   C17       1.0  0.4709008376940247  0.2592871783006103  0.14486982630325682  1.0000
  C   C18       1.0  0.9709050401976071  0.7407124618583154  0.8551321655313944  1.0000
  C   C19       1.0  0.9708917428994327  0.75928565381016  0.3551291571913708  1.0000
  C   C20       1.0  0.4709004392533629  0.24071398636560568  0.6448697502740331  1.0000
  C   C21       1.0  0.3561980730665084  0.12007379864920859  0.21457665008884427  1.0000
  C   C22       1.0  0.8562010855055959  0.8799245606001804  0.7854238552808895  1.0000
  C   C23       1.0  0.8561952010293439  0.620071462541155  0.28542156949021097  1.0000
  C   C24       1.0  0.3561978705561302  0.3799253243741136  0.7145766226012996  1.0000
  N   N1        1.0  0.9505321855621887  0.3290522959105289  0.9745559204423984  1.0000
  N   N2        1.0  0.450531903853296  0.6709473960053955  0.025444539101926008  1.0000
  N   N3        1.0  0.4505291423546894  0.8290511352991243  0.5254429516895841  1.0000
  N   N4        1.0  0.9505303818239952  0.17094619811059888  0.4745582789485852  1.0000
  N   N5        1.0  0.8163694482442098  0.9738797624402339  0.17679852077963432  1.0000
  N   N6        1.0  0.31636462352499717  0.026121842696277  0.8232012328477227  1.0000
  N   N7        1.0  0.3163645000019243  0.4738789935166139  0.32320138370278784  1.0000
  N   N8        1.0  0.8163665282735905  0.5261218254529043  0.6767975988320247  1.0000
  N   N9        1.0  0.9608443209550686  0.024141317564165408  0.11876353682728792  1.0000
  N   N10       1.0  0.4608425121637154  0.9758607066651878  0.8812361466151515  1.0000
  N   N11       1.0  0.46083754131805693  0.5241426453129705  0.3812369117462923  1.0000
  N   N12       1.0  0.9608416830560101  0.47585937892591096  0.6187620006048535  1.0000
  N   N13       1.0  0.9506675279633541  0.8521591197795931  0.0750157141479733  1.0000
  N   N14       1.0  0.4506613457846528  0.1478429303118247  0.9249832031461624  1.0000
  N   N15       1.0  0.4506669467210287  0.35216231884920995  0.424987167023609  1.0000
  N   N16       1.0  0.9506619270157372  0.6478413035843428  0.5750156057365245  1.0000
  N   N17       1.0  0.5598050710637992  0.11652712465772201  0.21877597327643636  1.0000
  N   N18       1.0  0.059805858662940616  0.8834727738250053  0.781226218264763  1.0000
  N   N19       1.0  0.05979696447104029  0.6165252712266638  0.2812239312379461  1.0000
  N   N20       1.0  0.5598063565177326  0.3834738410943075  0.7187744048392446  1.0000
  N   N21       1.0  0.6356669226099568  0.20635331383041233  0.174122737648652  1.0000
  N   N22       1.0  0.1356715222235039  0.7936463919017315  0.8258794170387633  1.0000
  N   N23       1.0  0.1356632942969469  0.7063522628601503  0.32587716133329536  1.0000
  N   N24       1.0  0.6356690635551274  0.29364508436687237  0.6741211378894649  1.0000
  N   N25       1.0  0.2940783760205221  0.2086941770043467  0.16867967452488847  1.0000
  N   N26       1.0  0.7940821430635764  0.7913051262453481  0.831321632115021  1.0000
  N   N27       1.0  0.7940723710938401  0.7086926438209389  0.3313201483192998  1.0000
  N   N28       1.0  0.294082060995386  0.2913066594362022  0.6686796161358046  1.0000
  N   N29       1.0  0.8322530138932651  0.07530158179700659  0.3462861754446607  1.0000
  N   N30       1.0  0.3322536572060528  0.92469762446472  0.6537158837443329  1.0000
  N   N31       1.0  0.33225276436787243  0.5753012541640246  0.15371512452738054  1.0000
  N   N32       1.0  0.8322569502326403  0.4246979520932683  0.8462838502882947  1.0000
  N   N33       1.0  0.002923200407423101  0.4757545105942427  0.8807280202688333  1.0000
  N   N34       1.0  0.502918723613398  0.5242431739047363  0.11927034344011393  1.0000
  N   N35       1.0  0.5029206519439384  0.9757544723627377  0.619271120459949  1.0000
  N   N36       1.0  0.0029197503255318003  0.0242432121385932  0.38072955652879165  1.0000
