data_image0
_chemical_formula_structural       Rb4H32C32Br4N16O24
_chemical_formula_sum              "Rb4 H32 C32 Br4 N16 O24"
_cell_length_a       7.234741539
_cell_length_b       8.109568352
_cell_length_c       21.885
_cell_angle_alpha    90.0
_cell_angle_beta     90.0
_cell_angle_gamma    90.0

_space_group_name_H-M_alt    "P 1"
_space_group_IT_number       1

loop_
  _space_group_symop_operation_xyz
  'x, y, z'

loop_
  _atom_site_type_symbol
  _atom_site_label
  _atom_site_symmetry_multiplicity
  _atom_site_fract_x
  _atom_site_fract_y
  _atom_site_fract_z
  _atom_site_occupancy
  Rb  Rb1       1.0  0.6044984435759844  0.565309989510034  0.75  1.0000
  Rb  Rb2       1.0  0.104498549937766  0.934689698759442  0.25  1.0000
  Rb  Rb3       1.0  0.8955026195580584  0.0653092713460381  0.7500004569339751  1.0000
  Rb  Rb4       1.0  0.3955013437004523  0.4346889805954462  0.25  1.0000
  H   H1        1.0  0.7707669956058679  0.5442558479590929  0.5716381082933495  1.0000
  H   H2        1.0  0.2707684841870375  0.9557426071991275  0.4283618917066505  1.0000
  H   H3        1.0  0.7292299208700185  0.0442563629063528  0.9283618917066506  1.0000
  H   H4        1.0  0.2292314094511809  0.4557431221463872  0.0716381082933495  1.0000
  H   H5        1.0  0.2292327916705688  0.4557431221463872  0.42836143477267546  1.0000
  H   H6        1.0  0.7292313030893993  0.0442563629063528  0.5716381082933495  1.0000
  H   H7        1.0  0.2707698664064182  0.9557438403103831  0.0716385652273246  1.0000
  H   H8        1.0  0.7707697600446364  0.5442570810703489  0.9283618917066506  1.0000
  H   H9        1.0  0.8654269079618613  0.6893918094446079  0.6222156728352743  1.0000
  H   H10       1.0  0.3654270143236431  0.8106091119361238  0.3777847840987008  1.0000
  H   H11       1.0  0.6345741551721815  0.189391091280612  0.8777852410326688  1.0000
  H   H12       1.0  0.1345728793145753  0.3106083937721281  0.1222152159012992  1.0000
  H   H13       1.0  0.1345742615339631  0.3106083937721281  0.37778432716472565  1.0000
  H   H14       1.0  0.634575537391562  0.189391091280612  0.6222156728352743  1.0000
  H   H15       1.0  0.36542424988487443  0.8106091119361238  0.1222147589673312  1.0000
  H   H16       1.0  0.8654255257424737  0.6893905763333521  0.8777852410326688  1.0000
  H   H17       1.0  0.3189388297510547  0.66676175171105  0.5316202878683995  1.0000
  H   H18       1.0  0.8189401056086609  0.8332379365584259  0.4683797121315934  1.0000
  H   H19       1.0  0.1810596816677759  0.16676226665831  0.9683792551976255  1.0000
  H   H20       1.0  0.6810609575253819  0.3332384515056859  0.0316202878683995  1.0000
  H   H21       1.0  0.6810623397447698  0.3332384515056859  0.46838016906556845  1.0000
  H   H22       1.0  0.1810624461065515  0.16676226665831  0.5316202878683995  1.0000
  H   H23       1.0  0.8189401056086609  0.8332379365584259  0.0316193740004564  1.0000
  H   H24       1.0  0.3189415941898233  0.666762984822306  0.9683806259995436  1.0000
  H   H25       1.0  0.2082272036781347  0.3506697121923494  0.6739570482065318  1.0000
  H   H26       1.0  0.7082284795357336  0.1493310059716464  0.3260424948594931  1.0000
  H   H27       1.0  0.2917713077407028  0.8506691972450897  0.826042037925518  1.0000
  H   H28       1.0  0.7917712013789211  0.6493304910243867  0.1739575051405069  1.0000
  H   H29       1.0  0.791772583598302  0.6493304910243867  0.3260424948594931  1.0000
  H   H30       1.0  0.2917713077407028  0.8506716634675939  0.673957962074482  1.0000
  H   H31       1.0  0.7082284795357336  0.1493310059716464  0.173957962074482  1.0000
  H   H32       1.0  0.20822858589751544  0.3506684790810937  0.826042037925518  1.0000
  C   C1        1.0  0.2868257267815011  0.507739724394149  0.6051185743660028  1.0000
  C   C2        1.0  0.7868339137360321  0.9922611969865828  0.3948809687000221  1.0000
  C   C3        1.0  0.21317969573425438  0.007743938675169201  0.8948818825679722  1.0000
  C   C4        1.0  0.7131699138367792  0.49226047882258683  0.10511857436600282  1.0000
  C   C5        1.0  0.7131795893724728  0.4922580126000754  0.3948823395019403  1.0000
  C   C6        1.0  0.2131741668567173  0.0077427055639205  0.6051181174320277  1.0000
  C   C7        1.0  0.7868311492972636  0.9922599638753268  0.10511857436600282  1.0000
  C   C8        1.0  0.2868284912202696  0.507739724394149  0.8948814256339972  1.0000
  C   C9        1.0  0.967867333235496  0.4477155678827955  0.6360740233036353  1.0000
  C   C10       1.0  0.4678660573778898  0.052285150281200315  0.3639259766963647  1.0000
  C   C11       1.0  0.5321268188016219  0.947722451603056  0.8639291752341762  1.0000
  C   C12       1.0  0.0321324540409407  0.5522846353339406  0.1360740233036353  1.0000
  C   C13       1.0  0.0321352184797092  0.5522821691114359  0.3639264336303398  1.0000
  C   C14       1.0  0.5321351121179276  0.94771751915804  0.6360740233036353  1.0000
  C   C15       1.0  0.4678632929391213  0.0522839171699445  0.1360735663696602  1.0000
  C   C16       1.0  0.9678631865773397  0.4477143347715398  0.8639255197623967  1.0000
  C   C17       1.0  0.90083522194503  0.5812134253529777  0.5934827507425169  1.0000
  C   C18       1.0  0.4008353283068118  0.9187850298052498  0.4065177061914582  1.0000
  C   C19       1.0  0.5991672234083933  0.0812151734114863  0.9065177061914582  1.0000
  C   C20       1.0  0.09916594755078727  0.4187843116412537  0.0934827507425169  1.0000
  C   C21       1.0  0.09916594755078727  0.4187843116412537  0.4065177061914582  1.0000
  C   C22       1.0  0.5991672234083933  0.0812164065227421  0.5934822938085418  1.0000
  C   C23       1.0  0.4008325638680432  0.9187837966939938  0.0934827507425169  1.0000
  C   C24       1.0  0.9008324575062616  0.5812158915754821  0.9065172492574831  1.0000
  C   C25       1.0  0.03847822323704969  0.6419355228341033  0.5473452136166301  1.0000
  C   C26       1.0  0.5384767346558803  0.8580629323241169  0.4526552433173379  1.0000
  C   C27       1.0  0.4615230526205564  0.1419323384475959  0.9526525017135014  1.0000
  C   C28       1.0  0.9615229462587747  0.3580609810488724  0.0473438428147119  1.0000
  C   C29       1.0  0.9615243284781556  0.3580646803826327  0.4526538725154197  1.0000
  C   C30       1.0  0.4615244348399371  0.1419360377813632  0.5473456705506052  1.0000
  C   C31       1.0  0.5384698235589552  0.8580616992128685  0.0473452136166301  1.0000
  C   C32       1.0  0.03847269435951259  0.6419392221678635  0.9526557002513131  1.0000
  Br  Br1       1.0  0.3533560924352485  0.2118238512135306  0.75  1.0000
  Br  Br2       1.0  0.8533559860734669  0.2881768669504652  0.25  1.0000
  Br  Br3       1.0  0.1466438012029698  0.7118233362662709  0.75  1.0000
  Br  Br4       1.0  0.6466423126218075  0.7881763520032055  0.25  1.0000
  N   N1        1.0  0.2205344850813447  0.6086106911945279  0.5588188256796869  1.0000
  N   N2        1.0  0.720534378719563  0.891388997074948  0.4411816312542811  1.0000
  N   N3        1.0  0.2794667907762544  0.1086124392530436  0.9411816312542811  1.0000
  N   N4        1.0  0.7794653021950921  0.391389512022208  0.058817911811743805  1.0000
  N   N5        1.0  0.7794666844144726  0.3913882789109522  0.4411816312542811  1.0000
  N   N6        1.0  0.2794667907762544  0.1086112061417879  0.5588183687457189  1.0000
  N   N7        1.0  0.7205302320614138  0.891388997074948  0.058817911811743805  1.0000
  N   N8        1.0  0.22053033842319533  0.6086106911945279  0.9411820881882562  1.0000
  N   N9        1.0  0.15532413894018754  0.4233912152862231  0.6386355951565008  1.0000
  N   N10       1.0  0.6553240325784059  0.0766082697665169  0.3613648617774743  1.0000
  N   N11       1.0  0.3446771369174115  0.923391933450219  0.8613648617774743  1.0000
  N   N12       1.0  0.8446770305556299  0.5766065217080014  0.1386342243545826  1.0000
  N   N13       1.0  0.8446770305556299  0.576607754819257  0.3613648617774743  1.0000
  N   N14       1.0  0.3446771369174115  0.9233943996727305  0.6386351382225257  1.0000
  N   N15       1.0  0.6553198859202566  0.07660703665526113  0.1386346812885506  1.0000
  N   N16       1.0  0.155321374501419  0.4233936815087347  0.8613657756454174  1.0000
  O   O1        1.0  0.4534591847290058  0.4911210840238809  0.6145734521361632  1.0000
  O   O2        1.0  0.9534507850509114  0.0088784010288592  0.3854270047978048  1.0000
  O   O3        1.0  0.04653379781228749  0.991120569076621  0.8854251770619114  1.0000
  O   O4        1.0  0.5465433669861994  0.508879119192855  0.11457299520219519  1.0000
  O   O5        1.0  0.5465364558892745  0.5088803523041108  0.3854265478638368  1.0000
  O   O6        1.0  0.04654070890921248  0.9911230352991325  0.6145739090701383  1.0000
  O   O7        1.0  0.9534576961478363  0.0088808672513636  0.11457345213616321  1.0000
  O   O8        1.0  0.4534591847290058  0.4911186178013765  0.8854265478638368  1.0000
  O   O9        1.0  0.8618746041426488  0.367179838772259  0.6687991775188493  1.0000
  O   O10       1.0  0.3618747105044306  0.1328196462804812  0.3312012794151258  1.0000
  O   O11       1.0  0.6381319878689311  0.8671756244912388  0.8311980808773143  1.0000
  O   O12       1.0  0.1381265653531756  0.6328203644444701  0.1687991775188493  1.0000
  O   O13       1.0  0.1381265653531756  0.6328215975557256  0.3311999086132076  1.0000
  O   O14       1.0  0.638126458991394  0.867179323824999  0.6687996344528244  1.0000
  O   O15       1.0  0.3618747105044306  0.1328196462804812  0.1687996344528244  1.0000
  O   O16       1.0  0.8618759863620369  0.3671823049947705  0.831201736349101  1.0000
  O   O17       1.0  0.9962954393248822  0.722474951278393  0.5012707333790303  1.0000
  O   O18       1.0  0.4962983101254394  0.7775259701023389  0.49872789581905147  1.0000
  O   O19       1.0  0.503704241589773  0.2224779324481645  0.9987301804889198  1.0000
  O   O20       1.0  0.0037015835127789  0.2775264850495986  0.0012730180488916  1.0000
  O   O21       1.0  0.0037057301709352993  0.2775252519383429  0.4987288096870017  1.0000
  O   O22       1.0  0.503704241589773  0.222475466225653  0.5012716472469734  1.0000
  O   O23       1.0  0.49629692790605157  0.7775247369910829  0.0012721041809485  1.0000
  O   O24       1.0  0.9962982037636576  0.722474951278393  0.9987274388850835  1.0000
