data_image0
_chemical_formula_structural       K4H28C32S4O8
_chemical_formula_sum              "K4 H28 C32 S4 O8"
_cell_length_a       6.993296284030882
_cell_length_b       8.32133875000256
_cell_length_c       15.105829379661413
_cell_angle_alpha    98.85643130366542
_cell_angle_beta     89.99984135851604
_cell_angle_gamma    89.99972745239614

_space_group_name_H-M_alt    "P 1"
_space_group_IT_number       1

loop_
  _space_group_symop_operation_xyz
  'x, y, z'

loop_
  _atom_site_type_symbol
  _atom_site_label
  _atom_site_symmetry_multiplicity
  _atom_site_fract_x
  _atom_site_fract_y
  _atom_site_fract_z
  _atom_site_occupancy
  K   K1        1.0  0.6084150405730285  0.19638291936841767  0.9365706422165943  1.0000
  K   K2        1.0  0.8915776622700166  0.6963818790332679  0.9365677249527594  1.0000
  K   K3        1.0  0.391582549090039  0.8036229353863363  0.06343342222574225  1.0000
  K   K4        1.0  0.10842564718144132  0.30362033231372015  0.06343139527644581  1.0000
  H   H1        1.0  0.4286635952974223  0.9897212783470618  0.4278200063529881  1.0000
  H   H2        1.0  0.07132851199657608  0.48972734923908223  0.427823399724879  1.0000
  H   H3        1.0  0.5713268447242683  0.010271206212379999  0.5721756376643583  1.0000
  H   H4        1.0  0.9286733675156285  0.5102724273807696  0.5721774991770588  1.0000
  H   H5        1.0  0.5047640007178841  0.26401273416282584  0.5082392641607854  1.0000
  H   H6        1.0  0.9952308664767956  0.764024605644252  0.508240622843914  1.0000
  H   H7        1.0  0.49522786924232076  0.735977314149963  0.4917594823905064  1.0000
  H   H8        1.0  0.004775302846702802  0.23597881965697098  0.49176058674022743  1.0000
  H   H9        1.0  0.6103118573525921  0.48312541230904316  0.4232240452924074  1.0000
  H   H10       1.0  0.8896894256057095  0.9831328940385756  0.4232218561188148  1.0000
  H   H11       1.0  0.3896843024053283  0.5168694971326033  0.5767784251619974  1.0000
  H   H12       1.0  0.1103210335460361  0.016869315779310105  0.5767785879680289  1.0000
  H   H13       1.0  0.6383708244807025  0.4227203571771057  0.256056966465998  1.0000
  H   H14       1.0  0.8616332241472762  0.9227243140141396  0.2560558372706723  1.0000
  H   H15       1.0  0.3616239053194191  0.5772794164324467  0.7439465801690944  1.0000
  H   H16       1.0  0.1383743751168822  0.07727789354043318  0.7439465926139449  1.0000
  H   H17       1.0  0.4013503345416041  0.6617879173254054  0.24560903476512413  1.0000
  H   H18       1.0  0.09864614124285959  0.16179265074664068  0.2456116170807405  1.0000
  H   H19       1.0  0.5986443952703056  0.33821186082354154  0.7543905402791893  1.0000
  H   H20       1.0  0.9013543083115466  0.8382119900411098  0.7543903580018921  1.0000
  H   H21       1.0  0.2871417494553157  0.7932004059187676  0.3357564853985835  1.0000
  H   H22       1.0  0.2128548768530365  0.29320463001456437  0.3357582152807482  1.0000
  H   H23       1.0  0.7128587001256932  0.20679815674365193  0.6642423241472386  1.0000
  H   H24       1.0  0.7871412828845479  0.7067987953090125  0.6642429943117422  1.0000
  H   H25       1.0  0.5402542560939523  0.7509721568191097  0.3397563346384516  1.0000
  H   H26       1.0  0.9597431166696495  0.25097649221783064  0.339759742065489  1.0000
  H   H27       1.0  0.45974476354817273  0.2490264066030718  0.6602418129767572  1.0000
  H   H28       1.0  0.0402544730105632  0.7490257161156676  0.6602420258956769  1.0000
  C   C1        1.0  0.559255785929615  0.1726778463816174  0.248888280725879  1.0000
  C   C2        1.0  0.9407440000095448  0.6726826653560634  0.24888778506282702  1.0000
  C   C3        1.0  0.4407346540597601  0.8273219317769005  0.7511112943220084  1.0000
  C   C4        1.0  0.059265029197611306  0.3273207606953363  0.7511127625871268  1.0000
  C   C5        1.0  0.4988438485673825  0.0498297925941671  0.2973203242135298  1.0000
  C   C6        1.0  0.0011572428831741  0.5498341401362197  0.2973223404600205  1.0000
  C   C7        1.0  0.5011537411338978  0.9501687708312047  0.7026778234028727  1.0000
  C   C8        1.0  0.9988474965012557  0.45016806818130567  0.7026794274951841  1.0000
  C   C9        1.0  0.4789172509484132  0.08333464611659741  0.3905463487775194  1.0000
  C   C10       1.0  0.021083096610752205  0.5833425525979622  0.3905493044043525  1.0000
  C   C11       1.0  0.5210803387792922  0.9166566214399978  0.6094498536037422  1.0000
  C   C12       1.0  0.9789187828939632  0.4166596564825227  0.6094518016214395  1.0000
  C   C13       1.0  0.5200403451354418  0.23913504676603742  0.435587871857841  1.0000
  C   C14       1.0  0.9799550948094904  0.73914090456568  0.43558940014381886  1.0000
  C   C15       1.0  0.479951524811554  0.7608586494811362  0.5644118473110282  1.0000
  C   C16       1.0  0.020052504462164205  0.26085887052826706  0.5644128226169443  1.0000
  C   C17       1.0  0.5773078397259681  0.361992968732686  0.38810597324762613  1.0000
  C   C18       1.0  0.9226900474514892  0.8620003000400445  0.3881063767528873  1.0000
  C   C19       1.0  0.42268260028392746  0.6379995112873614  0.6118936423605136  1.0000
  C   C20       1.0  0.07731755181660563  0.1380019090276647  0.6118947292681369  1.0000
  C   C21       1.0  0.594508969885098  0.32860371991920095  0.29484014445477413  1.0000
  C   C22       1.0  0.9054910907130918  0.8286062646377488  0.2948388385386522  1.0000
  C   C23       1.0  0.4054814701001631  0.6713948389827423  0.7051619747583829  1.0000
  C   C24       1.0  0.0945193684479335  0.17139229573261616  0.7051619567942141  1.0000
  C   C25       1.0  0.5790708743788854  0.13746007555658224  0.14847408566900097  1.0000
  C   C26       1.0  0.9209325677544129  0.6374637660346989  0.14847418142461782  1.0000
  C   C27       1.0  0.42092814524984584  0.8625409180565313  0.8515262548654549  1.0000
  C   C28       1.0  0.07907217163002402  0.3625384422828332  0.8515275865305938  1.0000
  C   C29       1.0  0.418686481346036  0.7697149325695631  0.2963101361901366  1.0000
  C   C30       1.0  0.0813090824331297  0.26971852718971695  0.2963126438615333  1.0000
  C   C31       1.0  0.5813096784088713  0.2302860640762034  0.7036875566195137  1.0000
  C   C32       1.0  0.9186899371861443  0.7302848981274722  0.7036885657285765  1.0000
  S   S1        1.0  0.7876352753386868  0.047825227235264806  0.1062833617979493  1.0000
  S   S2        1.0  0.7123689247151858  0.5478322831817832  0.1062826887015547  1.0000
  S   S3        1.0  0.21236231435669595  0.9521733339204135  0.8937167716138461  1.0000
  S   S4        1.0  0.28763581465462806  0.45217722554392026  0.8937170528980118  1.0000
  O   O1        1.0  0.4399576906863487  0.17188165652779472  0.10180775168421971  1.0000
  O   O2        1.0  0.06004673279025499  0.6718869595633734  0.10180778747152171  1.0000
  O   O3        1.0  0.5600427588778841  0.8281229880427786  0.8981909137394269  1.0000
  O   O4        1.0  0.9399608664817691  0.3281152510174721  0.8981919946859094  1.0000
  O   O5        1.0  0.4591407095988842  0.9013938170640541  0.2477952729271564  1.0000
  O   O6        1.0  0.0408543977764708  0.40139637537618006  0.24779840644702494  1.0000
  O   O7        1.0  0.5408540202285721  0.0986047493939637  0.7522002269644474  1.0000
  O   O8        1.0  0.9591431919094545  0.5986046174835591  0.7522025960204175  1.0000
