data_image0
_chemical_formula_structural       Cu2H18C18Br2N6
_chemical_formula_sum              "Cu2 H18 C18 Br2 N6"
_cell_length_a       7.583962792687029
_cell_length_b       8.329274202135572
_cell_length_c       9.091773901264459
_cell_angle_alpha    96.31733348799722
_cell_angle_beta     113.64415363954706
_cell_angle_gamma    108.89772651179973

_space_group_name_H-M_alt    "P 1"
_space_group_IT_number       1

loop_
  _space_group_symop_operation_xyz
  'x, y, z'

loop_
  _atom_site_type_symbol
  _atom_site_label
  _atom_site_symmetry_multiplicity
  _atom_site_fract_x
  _atom_site_fract_y
  _atom_site_fract_z
  _atom_site_occupancy
  Cu  Cu1       1.0  0.04725676906756599  0.18130080605448742  0.48145783151952076  1.0000
  Cu  Cu2       1.0  0.9527396869305348  0.8187004904846731  0.5185448911589108  1.0000
  H   H1        1.0  0.012068473981400993  0.35074446444105684  0.951040276304845  1.0000
  H   H2        1.0  0.9879330159343168  0.6492582572779497  0.04895659742205545  1.0000
  H   H3        1.0  0.21723833432239556  0.1837488514419263  0.904200211057081  1.0000
  H   H4        1.0  0.7827531136411777  0.8162418704727655  0.0958008004250388  1.0000
  H   H5        1.0  0.3776853239414777  0.0447322225290705  0.12715397937218145  1.0000
  H   H6        1.0  0.6223081930204302  0.9552598302982886  0.8728478716748004  1.0000
  H   H7        1.0  0.3065578575493149  0.06174139152547299  0.3717549117464643  1.0000
  H   H8        1.0  0.6934329331096192  0.9382479783843747  0.6282490343961487  1.0000
  H   H9        1.0  0.6075627404442371  0.2641338096554051  0.019078483631922452  1.0000
  H   H10       1.0  0.39243394328310177  0.7358648877371576  0.980920740777066  1.0000
  H   H11       1.0  0.5792690828345639  0.5451171939554128  0.18799897374232447  1.0000
  H   H12       1.0  0.4207329990633752  0.45488681679080395  0.812001536231968  1.0000
  H   H13       1.0  0.28521505728704705  0.7229966141536224  0.5663543528772694  1.0000
  H   H14       1.0  0.7147922318224075  0.27700617014448886  0.4336422856326224  1.0000
  H   H15       1.0  0.3412448716311686  0.7270199481218284  0.3932926439410523  1.0000
  H   H16       1.0  0.6587570478599502  0.2729867247486127  0.6067047933947978  1.0000
  H   H17       1.0  0.33032951014293827  0.5440431932520937  0.48197835558101354  1.0000
  H   H18       1.0  0.6696697157064051  0.455960828189653  0.5180178913965253  1.0000
  C   C1        1.0  0.05463312020876291  0.294272315458592  0.1848158938313987  1.0000
  C   C2        1.0  0.9453726592233737  0.7057303954652455  0.8151868268149802  1.0000
  C   C3        1.0  0.0810989727913594  0.2851595921146171  0.04122471250996542  1.0000
  C   C4        1.0  0.9189000144416823  0.7148470179774549  0.9587761278883352  1.0000
  C   C5        1.0  0.1964178277363899  0.1941526005897245  0.016324830539481597  1.0000
  C   C6        1.0  0.80357676521848  0.8058447448976266  0.9836757446072758  1.0000
  C   C7        1.0  0.2825924066546293  0.11499682706379132  0.13752242210922114  1.0000
  C   C8        1.0  0.7174019953411558  0.8849939786218073  0.8624729960078245  1.0000
  C   C9        1.0  0.24591850360930323  0.12517239214786  0.2756324827130286  1.0000
  C   C10       1.0  0.7540868244733048  0.8748263466319983  0.724371864627017  1.0000
  C   C11       1.0  0.9406171780239205  0.3967332137876696  0.2150188910396055  1.0000
  C   C12       1.0  0.05938093917124822  0.6032654835052682  0.7849819172921004  1.0000
  C   C13       1.0  0.7308413826552353  0.37211159619359074  0.12779333230590595  1.0000
  C   C14       1.0  0.26915960147560014  0.6278871009000825  0.872210643871242  1.0000
  C   C15       1.0  0.7150779409669211  0.5144340743974212  0.21169380334631444  1.0000
  C   C16       1.0  0.2849244875188147  0.48556463309288483  0.7883106616022391  1.0000
  C   C17       1.0  0.2631772322813788  0.6414874717883309  0.452261033012171  1.0000
  C   C18       1.0  0.7368255178082704  0.3585179014589955  0.5477354471503164  1.0000
  Br  Br1       1.0  0.31258775459170357  0.0634741268640369  0.6713682411832811  1.0000
  Br  Br2       1.0  0.687411850506642  0.936524622810623  0.3286286753145761  1.0000
  N   N1        1.0  0.13333899322600468  0.21198145302879107  0.3008530716858219  1.0000
  N   N2        1.0  0.8666694907349708  0.7880239198200057  0.6991497441675424  1.0000
  N   N3        1.0  0.9032736320722279  0.6227714269461445  0.3410937176311679  1.0000
  N   N4        1.0  0.0967299268418174  0.3772326256855293  0.6589039956605875  1.0000
  N   N5        1.0  0.03932462806069024  0.5491336176036369  0.34164377707642773  1.0000
  N   N6        1.0  0.9606756343423014  0.45086648407586694  0.6583502047609361  1.0000
