data_image0
_chemical_formula_structural       Dy2H18C9O24
_chemical_formula_sum              "Dy2 H18 C9 O24"
_cell_length_a       8.771401563611054
_cell_length_b       8.771413093402948
_cell_length_c       8.771408360876693
_cell_angle_alpha    66.32058156984529
_cell_angle_beta     66.32055478495148
_cell_angle_gamma    66.32057046166557

_space_group_name_H-M_alt    "P 1"
_space_group_IT_number       1

loop_
  _space_group_symop_operation_xyz
  'x, y, z'

loop_
  _atom_site_type_symbol
  _atom_site_label
  _atom_site_symmetry_multiplicity
  _atom_site_fract_x
  _atom_site_fract_y
  _atom_site_fract_z
  _atom_site_occupancy
  Dy  Dy1       1.0  0.26757133897257995  0.26757109533902923  0.267572065969496  1.0000
  Dy  Dy2       1.0  0.7324285333395578  0.7324294199017345  0.7324281503973181  1.0000
  H   H1        1.0  0.3096637157123324  0.17566645210091988  0.9491255501088389  1.0000
  H   H2        1.0  0.9491244487692966  0.30966454257630727  0.1756671868624195  1.0000
  H   H3        1.0  0.17566868359711657  0.9491245889756639  0.30966381822524625  1.0000
  H   H4        1.0  0.05087546241279023  0.8243328901055309  0.6903358631187897  1.0000
  H   H5        1.0  0.8243333594908651  0.6903358196321887  0.05087509147891471  1.0000
  H   H6        1.0  0.6903359374294951  0.0508746541977914  0.824333383872407  1.0000
  H   H7        1.0  0.2727437644480587  0.21677025237085704  0.6369143525023304  1.0000
  H   H8        1.0  0.6369149277617439  0.2727433780800367  0.21676885770540363  1.0000
  H   H9        1.0  0.21676992595240555  0.6369147663229597  0.27274289482205216  1.0000
  H   H10       1.0  0.3630843062341214  0.7832303331663012  0.7272554462997861  1.0000
  H   H11       1.0  0.7832310167857198  0.7272570530496124  0.3630840426274348  1.0000
  H   H12       1.0  0.7272560432232922  0.36308445795831557  0.7832285919722252  1.0000
  H   H13       1.0  0.4566482693390411  0.12543053728779796  0.5237514919223685  1.0000
  H   H14       1.0  0.5237535410797776  0.4566468467754419  0.1254279968209885  1.0000
  H   H15       1.0  0.1254304929844493  0.5237518966232458  0.4566467472183291  1.0000
  H   H16       1.0  0.4762474178171274  0.8745699909429377  0.5433525471836447  1.0000
  H   H17       1.0  0.8745705110460942  0.5433535885060296  0.4762465865189541  1.0000
  H   H18       1.0  0.5433522424610115  0.4762473828909394  0.8745689532098029  1.0000
  C   C1        1.0  0.5000008250500584  0.9640931782595173  0.03590633327573289  1.0000
  C   C2        1.0  0.035905454602662645  0.49999969928231286  0.9640943561078288  1.0000
  C   C3        1.0  0.9640940876885009  0.03590594582676939  0.4999996248191821  1.0000
  C   C4        1.0  0.5819669594082766  0.9150202408104634  0.18423822868989254  1.0000
  C   C5        1.0  0.18423836588835485  0.5819660195102968  0.9150218905934793  1.0000
  C   C6        1.0  0.915020174779201  0.1842394864591341  0.5819658155062087  1.0000
  C   C7        1.0  0.8157615319677873  0.08497889582508832  0.41803341584759596  1.0000
  C   C8        1.0  0.08497980134873727  0.4180333410144996  0.8157608497983871  1.0000
  C   C9        1.0  0.4180335275049957  0.8157609615764655  0.08497891574521081  1.0000
  O   O1        1.0  0.3780026352083823  0.1272105495295008  0.03768839968114427  1.0000
  O   O2        1.0  0.0376879337706413  0.378002812887729  0.12721190082128692  1.0000
  O   O3        1.0  0.1272125556473824  0.03768751374707341  0.3780024026356443  1.0000
  O   O4        1.0  0.9623117609273849  0.8727898974658146  0.6219961385308536  1.0000
  O   O5        1.0  0.8727886826214188  0.6219977196218168  0.9623110108056494  1.0000
  O   O6        1.0  0.6219976645492906  0.9623117518930187  0.8727883896250503  1.0000
  O   O7        1.0  0.33318931396607343  0.18038521442695546  0.5279409403550872  1.0000
  O   O8        1.0  0.5279424277515473  0.33318790296020506  0.18038424881663664  1.0000
  O   O9        1.0  0.1803854629412527  0.5279407232048215  0.33318843909091805  1.0000
  O   O10       1.0  0.47205950180014594  0.8196153402717526  0.6668115028232221  1.0000
  O   O11       1.0  0.8196156191049866  0.6668112453254478  0.47206001878537046  1.0000
  O   O12       1.0  0.6668110255021772  0.4720611212972372  0.8196139956330839  1.0000
  O   O13       1.0  0.49258653554672793  0.9904450074028759  0.30192031686724613  1.0000
  O   O14       1.0  0.3019195446852407  0.49258596561278967  0.9904453979966733  1.0000
  O   O15       1.0  0.9904450534626148  0.3019207894063172  0.4925851802181285  1.0000
  O   O16       1.0  0.6980819329381589  0.009552871304478598  0.5074126844364101  1.0000
  O   O17       1.0  0.009555210902135482  0.5074133859353651  0.6980799754364853  1.0000
  O   O18       1.0  0.507412953385007  0.6980822236787103  0.009552408460130807  1.0000
  O   O19       1.0  0.7262423837328383  0.7987650916083383  0.18225809129909018  1.0000
  O   O20       1.0  0.18225852918839533  0.7262424196551153  0.7987642239843069  1.0000
  O   O21       1.0  0.7987644214279398  0.18225845597982732  0.7262421323337662  1.0000
  O   O22       1.0  0.8177421779296523  0.2012353156431601  0.27375698008424365  1.0000
  O   O23       1.0  0.2012359352284889  0.27375691729952206  0.8177410055559947  1.0000
  O   O24       1.0  0.27375653960494606  0.8177420434687407  0.20123517069866648  1.0000
