data_image0
_chemical_formula_structural       Dy4Cu6H48C48O60
_chemical_formula_sum              "Dy4 Cu6 H48 C48 O60"
_cell_length_a       12.880437819083758
_cell_length_b       12.881860146786138
_cell_length_c       16.332865907998553
_cell_angle_alpha    90.00686652774299
_cell_angle_beta     89.99622697601119
_cell_angle_gamma    119.9945935810702

_space_group_name_H-M_alt    "P 1"
_space_group_IT_number       1

loop_
  _space_group_symop_operation_xyz
  'x, y, z'

loop_
  _atom_site_type_symbol
  _atom_site_label
  _atom_site_symmetry_multiplicity
  _atom_site_fract_x
  _atom_site_fract_y
  _atom_site_fract_z
  _atom_site_occupancy
  Dy  Dy1       1.0  0.6666347741072443  0.3333227542683159  0.24999057135653396  1.0000
  Dy  Dy2       1.0  0.33331187845052324  0.6666884067462251  0.2500365176264764  1.0000
  Dy  Dy3       1.0  0.33338197511333323  0.6666677885240873  0.7500308335341472  1.0000
  Dy  Dy4       1.0  0.6666626422516516  0.3333243124807481  0.7499910083034464  1.0000
  Cu  Cu1       1.0  0.9999513742076399  0.49989357489235403  0.5000193337397859  1.0000
  Cu  Cu2       1.0  0.49968322711907115  0.4999972408358531  0.4999935459290512  1.0000
  Cu  Cu3       1.0  0.4999881327586949  0.0002122386049449264  0.49999682547739605  1.0000
  Cu  Cu4       1.0  0.4999768385993945  1.7080406543291462e-05  1.9654068346099998e-05  1.0000
  Cu  Cu5       1.0  0.5000060930523914  0.49962818068846093  1.080510777699998e-06  1.0000
  Cu  Cu6       1.0  0.00021270712002057878  0.5000401865988024  3.531542347449999e-05  1.0000
  H   H1        1.0  0.8060490222342692  0.6524096260892234  0.3561649622280568  1.0000
  H   H2        1.0  0.9358053102908672  0.69431919036289  0.2934392777156276  1.0000
  H   H3        1.0  0.3476009237324362  0.15355988921358235  0.3561233245835068  1.0000
  H   H4        1.0  0.305780609123353  0.24149324120310917  0.2933750294519228  1.0000
  H   H5        1.0  0.8463430926132102  0.19410596832575766  0.3561358130116403  1.0000
  H   H6        1.0  0.7584824581333222  0.06420602062301103  0.2934560418167891  1.0000
  H   H7        1.0  0.19405373259402836  0.34763442439258796  0.356157394255284  1.0000
  H   H8        1.0  0.0642700495753132  0.30561831040711235  0.2934231590152407  1.0000
  H   H9        1.0  0.6524372824553023  0.8464881970219833  0.3561604567736794  1.0000
  H   H10       1.0  0.6941316416428124  0.7585243737197871  0.29334780529224247  1.0000
  H   H11       1.0  0.15364412718003687  0.8060926871565356  0.3561969481330962  1.0000
  H   H12       1.0  0.2415649061775297  0.9358782806174515  0.2934357832144201  1.0000
  H   H13       1.0  0.6521674101772629  0.805805268577195  0.1438496458541749  1.0000
  H   H14       1.0  0.6942832188667791  0.9357837335367448  0.2064651124937669  1.0000
  H   H15       1.0  0.1536178954224567  0.34757640934993356  0.1437962063441418  1.0000
  H   H16       1.0  0.2414527658600107  0.30573179333200784  0.20657724308682646  1.0000
  H   H17       1.0  0.1941650485553481  0.8464879847712441  0.14387968219411107  1.0000
  H   H18       1.0  0.06435686786470295  0.7586159397080793  0.206619184040207  1.0000
  H   H19       1.0  0.3476740728745611  0.19407565566522314  0.1438007462343336  1.0000
  H   H20       1.0  0.3056843550533515  0.06421716407439244  0.2065319348758479  1.0000
  H   H21       1.0  0.8464218444088799  0.6524551035860425  0.1438450107045597  1.0000
  H   H22       1.0  0.758582927307714  0.6943102637967159  0.20661083315572168  1.0000
  H   H23       1.0  0.8060335070873422  0.15356019094491546  0.1438313393037376  1.0000
  H   H24       1.0  0.935697131083046  0.24153772894307926  0.2066625697330551  1.0000
  H   H25       1.0  0.19397075017811016  0.34757042854152337  0.6438092985185193  1.0000
  H   H26       1.0  0.06425537630290282  0.30568703869588626  0.7066011091808235  1.0000
  H   H27       1.0  0.6524290687693931  0.8464422880961063  0.6439146119959318  1.0000
  H   H28       1.0  0.6942118994035766  0.7584961896766982  0.7066653545849988  1.0000
  H   H29       1.0  0.15366235304441025  0.8058604501691421  0.6438262018277995  1.0000
  H   H30       1.0  0.24147352863847962  0.9357454371602998  0.7065194407057475  1.0000
  H   H31       1.0  0.8059916784017174  0.6523833833525784  0.6438082960722866  1.0000
  H   H32       1.0  0.9357326025991167  0.6943416659308921  0.7065627339087399  1.0000
  H   H33       1.0  0.3475940452148123  0.1535035880615965  0.6438431931047006  1.0000
  H   H34       1.0  0.3058115661921121  0.24148184796636218  0.70661726856396  1.0000
  H   H35       1.0  0.8463605216942155  0.19406438766991838  0.6438073138706528  1.0000
  H   H36       1.0  0.7585357797097458  0.06421728470719035  0.7065188890742817  1.0000
  H   H37       1.0  0.34770352186423287  0.1940635049399475  0.8561527722950188  1.0000
  H   H38       1.0  0.30569678545211326  0.06418576066724303  0.7934509816501245  1.0000
  H   H39       1.0  0.8464264898940782  0.6523861711473911  0.8561658100517633  1.0000
  H   H40       1.0  0.7586141548152338  0.6943277178202718  0.7934404906570123  1.0000
  H   H41       1.0  0.8059450819226369  0.1535620834806934  0.8561196853745088  1.0000
  H   H42       1.0  0.9356924614539606  0.24145280820791004  0.7933636500851194  1.0000
  H   H43       1.0  0.6523785941591738  0.8060506647176094  0.8561820883552186  1.0000
  H   H44       1.0  0.6943082715687223  0.9358617842256364  0.7934625299954234  1.0000
  H   H45       1.0  0.1535936163289192  0.34755490197780137  0.8561708838832658  1.0000
  H   H46       1.0  0.24143330053135503  0.3056671055343968  0.7934050612767365  1.0000
  H   H47       1.0  0.19401587726851222  0.8464219126430945  0.8561368000305905  1.0000
  H   H48       1.0  0.06430102569964898  0.7584781998064684  0.7933551609744853  1.0000
  C   C1        1.0  0.8785722199506408  0.5343952676439371  0.3655079032096323  1.0000
  C   C2        1.0  0.8515148415707116  0.6184006972364883  0.3160873002476379  1.0000
  C   C3        1.0  0.4655981121446331  0.3441280813246692  0.3655237509498264  1.0000
  C   C4        1.0  0.3816476387457115  0.23304603732304935  0.31607707355532  1.0000
  C   C5        1.0  0.65581808992021  0.12145000434556137  0.3655154948610146  1.0000
  C   C6        1.0  0.7668716281999437  0.14852045438928488  0.31607996018626483  1.0000
  C   C7        1.0  0.1213998831285393  0.4655108456818695  0.365512329387073  1.0000
  C   C8        1.0  0.14853313461295412  0.38157026810922895  0.3160733710786801  1.0000
  C   C9        1.0  0.5342909999160739  0.6559394758522146  0.3655448479368459  1.0000
  C   C10       1.0  0.6182977665712668  0.7669987663009862  0.31609951285826543  1.0000
  C   C11       1.0  0.34415906936908425  0.8786852201719809  0.3655702513290962  1.0000
  C   C12       1.0  0.23310605576224222  0.8515724592383194  0.3161241796197132  1.0000
  C   C13       1.0  0.5343751454244483  0.8785974906738829  0.1344819578420982  1.0000
  C   C14       1.0  0.6183279460244362  0.8514692414502959  0.1838880486327312  1.0000
  C   C15       1.0  0.34416508599166207  0.4655867508840572  0.134500052208324  1.0000
  C   C16       1.0  0.23306723580478922  0.381617773512211  0.18389240163729426  1.0000
  C   C17       1.0  0.12158100555801352  0.6559535582103136  0.1344804845503376  1.0000
  C   C18       1.0  0.1486670012065828  0.7670180889386203  0.1839334285544325  1.0000
  C   C19       1.0  0.46550194656160215  0.12136647370766689  0.1344552474062795  1.0000
  C   C20       1.0  0.3815687818022724  0.14851774362701772  0.18387933366307144  1.0000
  C   C21       1.0  0.6559025802243496  0.5343953906573375  0.13448430507543208  1.0000
  C   C22       1.0  0.766952349835421  0.6184035702115266  0.18392090551665063  1.0000
  C   C23       1.0  0.8785020626168318  0.3441065147459739  0.1344524437592725  1.0000
  C   C24       1.0  0.8513835496004061  0.23303287261104078  0.183904370520878  1.0000
  C   C25       1.0  0.12144262990269541  0.4655499988029135  0.6345110522956787  1.0000
  C   C26       1.0  0.14853128971459023  0.38157540384234767  0.6839194114533171  1.0000
  C   C27       1.0  0.5343465295582561  0.6558904404495252  0.6344823446172541  1.0000
  C   C28       1.0  0.6183479325286072  0.7669419822537263  0.6839455549873605  1.0000
  C   C29       1.0  0.3441963323890957  0.8785670715976648  0.6344808073275132  1.0000
  C   C30       1.0  0.23311478283172699  0.8514429091058631  0.683897360424794  1.0000
  C   C31       1.0  0.8785895016331721  0.5344329615645619  0.6344845836303961  1.0000
  C   C32       1.0  0.8514726865801517  0.618410982535529  0.6838966032722453  1.0000
  C   C33       1.0  0.46560897625612796  0.3440716521486776  0.6344441024295975  1.0000
  C   C34       1.0  0.3816569114791334  0.23300103737251007  0.6838937254977606  1.0000
  C   C35       1.0  0.6558361404898818  0.1214216393121247  0.6344413571542518  1.0000
  C   C36       1.0  0.7669031458371902  0.14850885909537923  0.6838782453484881  1.0000
  C   C37       1.0  0.46558028194935724  0.12139855770671192  0.865510668260427  1.0000
  C   C38       1.0  0.3816104456680804  0.14849145639302455  0.8160886577542357  1.0000
  C   C39       1.0  0.6559083437500347  0.5343890552180495  0.8655182935835483  1.0000
  C   C40       1.0  0.7669599108650471  0.6183977613080884  0.8160910435472815  1.0000
  C   C41       1.0  0.8784953504920804  0.3441227503677876  0.8655317393101001  1.0000
  C   C42       1.0  0.8513914869857613  0.23304189513115153  0.8160745086515035  1.0000
  C   C43       1.0  0.5344378452729543  0.8786642844831432  0.8655435008850176  1.0000
  C   C44       1.0  0.6184170767337277  0.8515570466337008  0.8161151309101129  1.0000
  C   C45       1.0  0.34414031717555815  0.4655124045863913  0.8655144466926572  1.0000
  C   C46       1.0  0.23305711067473575  0.38156964040984315  0.8160876414686411  1.0000
  C   C47       1.0  0.12157980608757414  0.6559022338410329  0.8655463101652714  1.0000
  C   C48       1.0  0.14861514692868366  0.766933927000167  0.8160802977568906  1.0000
  O   O1        1.0  0.8200425608365617  0.42383940527297154  0.3501622149982424  1.0000
  O   O2        1.0  0.9595619416733072  0.5869516441316306  0.4195075218705284  1.0000
  O   O3        1.0  0.5761542906561914  0.3962419362714654  0.35016809029688284  1.0000
  O   O4        1.0  0.41286408807542313  0.3724961793396486  0.419463319655037  1.0000
  O   O5        1.0  0.6037386595635253  0.17992322937168123  0.3501655234620102  1.0000
  O   O6        1.0  0.6274559464581841  0.04046819905973821  0.419517265217614  1.0000
  O   O7        1.0  0.17990144600412356  0.5760710301346706  0.3502026491265582  1.0000
  O   O8        1.0  0.04039688111606664  0.41289802006225773  0.4194998828137528  1.0000
  O   O9        1.0  0.423740946388051  0.6038321395394917  0.3501686087144478  1.0000
  O   O10       1.0  0.5868882046432232  0.6275313540308003  0.4195397918369324  1.0000
  O   O11       1.0  0.3961825957045946  0.8201411417304811  0.3502703630613553  1.0000
  O   O12       1.0  0.3725543090930969  0.9597849595001833  0.4195042258925312  1.0000
  O   O13       1.0  0.4238307850574185  0.8201450514013328  0.14984309312150404  1.0000
  O   O14       1.0  0.5870392991213012  0.9595993734139937  0.08049464243960357  1.0000
  O   O15       1.0  0.3962198069891229  0.5761445625789463  0.1498301714128587  1.0000
  O   O16       1.0  0.37256044150169026  0.412915035865005  0.08054466379843458  1.0000
  O   O17       1.0  0.18002937323431925  0.603847839721496  0.1498491183624395  1.0000
  O   O18       1.0  0.04053717763186154  0.6275579258040265  0.0805091658060633  1.0000
  O   O19       1.0  0.5760539133427826  0.1798615410361036  0.1497911138813777  1.0000
  O   O20       1.0  0.41281719628324964  0.040295462808195674  0.0805019205748607  1.0000
  O   O21       1.0  0.6038673771995492  0.4238353884308167  0.1498015945957434  1.0000
  O   O22       1.0  0.6274715891246955  0.5869303334535302  0.0804739474959106  1.0000
  O   O23       1.0  0.8200200420635324  0.3961895185155341  0.1497912181171586  1.0000
  O   O24       1.0  0.9596256883554446  0.3725177356703566  0.0805290445049494  1.0000
  O   O25       1.0  0.17997337476174374  0.5761078607811427  0.6498304132782308  1.0000
  O   O26       1.0  0.04042793286825489  0.4129339663363396  0.5805279633670679  1.0000
  O   O27       1.0  0.4237945400850335  0.6038196709286225  0.649847189622534  1.0000
  O   O28       1.0  0.5869510750882297  0.6274821657193711  0.5804797074043933  1.0000
  O   O29       1.0  0.39629100911691467  0.8201066030208747  0.6498093502325234  1.0000
  O   O30       1.0  0.3725202245665074  0.9596021880109261  0.5805169959953531  1.0000
  O   O31       1.0  0.8200621798917284  0.4238746371321794  0.6497973241695403  1.0000
  O   O32       1.0  0.9596066392761456  0.5870185890771535  0.5805043777704028  1.0000
  O   O33       1.0  0.576161467951344  0.3961751365066489  0.6497989125439432  1.0000
  O   O34       1.0  0.41288984036411597  0.3724490853521444  0.5805079306045826  1.0000
  O   O35       1.0  0.6037814320721963  0.17992415372012963  0.6497890003897311  1.0000
  O   O36       1.0  0.6274437472690125  0.04040424935725189  0.5804492182463149  1.0000
  O   O37       1.0  0.5761252067237949  0.17987324422633574  0.8501507576558466  1.0000
  O   O38       1.0  0.4129211053687456  0.040411661527549735  0.9195102291987851  1.0000
  O   O39       1.0  0.6038942712854407  0.4238318470695646  0.8501796043561711  1.0000
  O   O40       1.0  0.6274481421006399  0.5869055787514341  0.9195355169832027  1.0000
  O   O41       1.0  0.8200340493007515  0.39621805689996126  0.8501729011130619  1.0000
  O   O42       1.0  0.9595518170424244  0.37249869380023887  0.9194957113050891  1.0000
  O   O43       1.0  0.4238843549124026  0.8201387727355468  0.8502106954863535  1.0000
  O   O44       1.0  0.5870944388501658  0.9597166623889991  0.919509683979598  1.0000
  O   O45       1.0  0.3961930305337088  0.5760784391650373  0.8502253219881339  1.0000
  O   O46       1.0  0.37254091992485877  0.4128409516053963  0.9194537798191789  1.0000
  O   O47       1.0  0.18006986808191516  0.6038328039326329  0.8501867192884447  1.0000
  O   O48       1.0  0.04056068822642089  0.627504950675558  0.9195376748645643  1.0000
  O   O49       1.0  0.7757201585563749  0.551331734981737  0.2499895037309159  1.0000
  O   O50       1.0  0.4487318127269828  0.22429708457866568  0.2499719319672735  1.0000
  O   O51       1.0  0.7754441189530681  0.22421819243547245  0.2499545614643068  1.0000
  O   O52       1.0  0.22427310347786994  0.4486743262826209  0.2499708505079141  1.0000
  O   O53       1.0  0.5512117511431425  0.7758400833844445  0.250045361411658  1.0000
  O   O54       1.0  0.22444884517850014  0.7757258464210112  0.2500566061359421  1.0000
  O   O55       1.0  0.2243499429595417  0.4486533325311441  0.7500037392195296  1.0000
  O   O56       1.0  0.5512676374408656  0.7757327981985682  0.7500372271984614  1.0000
  O   O57       1.0  0.22450653570196955  0.7757079843959004  0.7500080631867263  1.0000
  O   O58       1.0  0.7756757906101511  0.5513340503716575  0.7499825906050148  1.0000
  O   O59       1.0  0.4487531145327281  0.22423960211003896  0.749980327722234  1.0000
  O   O60       1.0  0.7755363977407725  0.224284208912948  0.7499868390364384  1.0000
