data_image0
_chemical_formula_structural       Co2H28C40N4O10
_chemical_formula_sum              "Co2 H28 C40 N4 O10"
_cell_length_a       7.449968487568282
_cell_length_b       10.183121700610286
_cell_length_c       10.198166074777095
_cell_angle_alpha    87.75506822033627
_cell_angle_beta     89.33164883214684
_cell_angle_gamma    88.93828404251042

_space_group_name_H-M_alt    "P 1"
_space_group_IT_number       1

loop_
  _space_group_symop_operation_xyz
  'x, y, z'

loop_
  _atom_site_type_symbol
  _atom_site_label
  _atom_site_symmetry_multiplicity
  _atom_site_fract_x
  _atom_site_fract_y
  _atom_site_fract_z
  _atom_site_occupancy
  Co  Co1       1.0  0.5000022669793366  0.9999987276144328  1.1171425100879198e-06  1.0000
  Co  Co2       1.0  0.99999911884386  4.3815143870060834e-07  3.4671688809557196e-07  1.0000
  H   H1        1.0  0.7524531786619877  0.9284774365037621  0.182481609938705  1.0000
  H   H2        1.0  0.744320842448616  0.8170354212395878  0.07173839777587429  1.0000
  H   H3        1.0  0.2475485740185022  0.07152206643405629  0.8175189132870173  1.0000
  H   H4        1.0  0.25568362577448067  0.18296310891517456  0.9282621207087088  1.0000
  H   H5        1.0  0.1188273214390207  0.5868410000565942  0.1412361070777095  1.0000
  H   H6        1.0  0.38121445281228006  0.8575184064473902  0.41417187805470235  1.0000
  H   H7        1.0  0.8811771854737742  0.413155569154469  0.8587625217562048  1.0000
  H   H8        1.0  0.6187606195639859  0.1424751025517423  0.5858273026928343  1.0000
  H   H9        1.0  0.1196001427470179  0.34374118042504165  0.11432524009043019  1.0000
  H   H10       1.0  0.3825266839967868  0.8846125805146129  0.6568662682377209  1.0000
  H   H11       1.0  0.8804029951205264  0.656257342218936  0.885676279135886  1.0000
  H   H12       1.0  0.6174523020667664  0.11538487290428628  0.3431336895859545  1.0000
  H   H13       1.0  0.4359137671179667  0.2550785528352648  0.7443685938519309  1.0000
  H   H14       1.0  0.0642401162127513  0.2554588669160864  0.7452156864874979  1.0000
  H   H15       1.0  0.5640841385356268  0.7449160154338941  0.2556341295625302  1.0000
  H   H16       1.0  0.9357600018908129  0.7445494796444692  0.2547835551598893  1.0000
  H   H17       1.0  0.6059642929767789  0.38356874274526825  0.5737317669687555  1.0000
  H   H18       1.0  0.8931397543851887  0.42710716191228937  0.6166054772115855  1.0000
  H   H19       1.0  0.3940376704038755  0.6164248578073597  0.42627093148538353  1.0000
  H   H20       1.0  0.1068617327636261  0.5728992312153594  0.3833908740433997  1.0000
  H   H21       1.0  0.6393270932467346  0.6253684478788915  0.5919056143671212  1.0000
  H   H22       1.0  0.8594337662773909  0.4096615397037695  0.3750202090826917  1.0000
  H   H23       1.0  0.3606788418557443  0.37462615567795143  0.4080950266871639  1.0000
  H   H24       1.0  0.1405664023447528  0.5903448434688271  0.6249781234365842  1.0000
  H   H25       1.0  0.4935882091464237  0.7398721990648482  0.7759259720785748  1.0000
  H   H26       1.0  0.005501815472563  0.2251377821170664  0.2606904536614891  1.0000
  H   H27       1.0  0.5064162784215256  0.2601253506180612  0.2240736015806775  1.0000
  H   H28       1.0  0.994499664160287  0.7748695890381683  0.7393078229413774  1.0000
  C   C1        1.0  0.2692729670610133  0.7720540833443295  0.9815497186961152  1.0000
  C   C2        1.0  0.22945124821148968  0.018275270950034898  0.2292183194008643  1.0000
  C   C3        1.0  0.7307328433465299  0.22794445187695808  0.018450779569292294  1.0000
  C   C4        1.0  0.7705423266674103  0.981728133253071  0.7707821823510628  1.0000
  C   C5        1.0  0.2780570133781879  0.6252293846135969  0.9676416909912432  1.0000
  C   C6        1.0  0.22105841326963832  0.0318739170631019  0.3757973695885042  1.0000
  C   C7        1.0  0.7219447586471403  0.3747691378523754  0.03235788740914809  1.0000
  C   C8        1.0  0.7789378534941065  0.9681285192454682  0.6242011663771834  1.0000
  C   C9        1.0  0.1900126931195771  0.5446252115887588  0.0587437212948032  1.0000
  C   C10       1.0  0.30996452600847135  0.9402932371985454  0.4563261856145715  1.0000
  C   C11       1.0  0.8099863827079901  0.4553733031884236  0.9412549170213963  1.0000
  C   C12       1.0  0.6900237693409395  0.05970622240678839  0.5436715982352993  1.0000
  C   C13       1.0  0.18946813720020117  0.4078553122754085  0.04338218152950901  1.0000
  C   C14       1.0  0.3115412280943417  0.9557249044294732  0.5928613315370442  1.0000
  C   C15       1.0  0.8105323001566518  0.5921422270964525  0.956615491742177  1.0000
  C   C16       1.0  0.6884470984287958  0.0442735722597547  0.4071364880100461  1.0000
  C   C17       1.0  0.3583933994028071  0.4253563064031026  0.8526409234341017  1.0000
  C   C18       1.0  0.14155020513278063  0.14711282037081466  0.5752567761478886  1.0000
  C   C19       1.0  0.6416124926970496  0.5746392825141128  0.1473587014004067  1.0000
  C   C20       1.0  0.8584447001016782  0.8528905913430763  0.4247427248623056  1.0000
  C   C21       1.0  0.4450762451525634  0.361601303372609  0.7476535971360221  1.0000
  C   C22       1.0  0.054607032999250286  0.2523696103972314  0.6388024558221375  1.0000
  C   C23       1.0  0.5549282037256872  0.6383982072540062  0.2523478661738991  1.0000
  C   C24       1.0  0.9453904749117755  0.7476367577537885  0.3611978781805973  1.0000
  C   C25       1.0  0.5410320894716705  0.43322553178120426  0.6545351977790829  1.0000
  C   C26       1.0  0.9581391717752084  0.34601038707263126  0.5671163880954353  1.0000
  C   C27       1.0  0.4589712204063474  0.5667690494212819  0.345470386326312  1.0000
  C   C28       1.0  0.041858374825515896  0.6539940201346894  0.4328820562566306  1.0000
  C   C29       1.0  0.5581303824046556  0.5705095555912861  0.664041277220214  1.0000
  C   C30       1.0  0.9408568949492276  0.3369236925812372  0.42988892695686326  1.0000
  C   C31       1.0  0.4418768712244869  0.4294850579206084  0.3359573825697808  1.0000
  C   C32       1.0  0.0591405624432255  0.6630846389577415  0.570112316173983  1.0000
  C   C33       1.0  0.47567179708823193  0.635091625152505  0.7654029714192987  1.0000
  C   C34       1.0  0.023469258936891894  0.23529919431052096  0.36547568543668507  1.0000
  C   C35       1.0  0.5243327764849467  0.3649039538096659  0.234598634679493  1.0000
  C   C36       1.0  0.9765295675008119  0.7647071837955508  0.6345226673017663  1.0000
  C   C37       1.0  0.37161156692054226  0.5652683645060462  0.8616081169110785  1.0000
  C   C38       1.0  0.1277453719461121  0.1383846415133192  0.43550485443867615  1.0000
  C   C39       1.0  0.6283955544977075  0.43473115869788614  0.1383923254379269  1.0000
  C   C40       1.0  0.8722508442990531  0.8616197581832096  0.5644945906551229  1.0000
  N   N1        1.0  0.2658533089633081  0.3495726909859799  0.9428754141650798  1.0000
  N   N2        1.0  0.2350013634054946  0.05650878015286759  0.6510274133294373  1.0000
  N   N3        1.0  0.7341458765272576  0.6504238481819228  0.05712721763576669  1.0000
  N   N4        1.0  0.7649936116923897  0.9434916877012184  0.3489702337273144  1.0000
  O   O1        1.0  0.11405433002695275  0.8205222818336965  0.004618876689114892  1.0000
  O   O2        1.0  0.3844061590149366  0.9959284108538711  0.18107468046338937  1.0000
  O   O3        1.0  0.885951351372732  0.17947920946870966  0.9953785729169837  1.0000
  O   O4        1.0  0.6155915047647582  0.004073042716591099  0.8189258320254353  1.0000
  O   O5        1.0  0.42007504240593346  0.8286627822827554  0.968450563781971  1.0000
  O   O6        1.0  0.0781274930558737  0.031091844571193395  0.17219039028000077  1.0000
  O   O7        1.0  0.5799322198490628  0.1713337823957914  0.0315539077488936  1.0000
  O   O8        1.0  0.9218702330712887  0.9689076431670429  0.8278101936032626  1.0000
  O   O9        1.0  0.7477812870239758  0.9159400118871801  0.0838112389923182  1.0000
  O   O10       1.0  0.2522245545573014  0.08405754041799438  0.9161892949703088  1.0000
