data_image0
_chemical_formula_structural       AlH18C27N13O6
_chemical_formula_sum              "Al1 H18 C27 N13 O6"
_cell_length_a       3.8729131687308405
_cell_length_b       18.128243107216733
_cell_length_c       18.22596961579894
_cell_angle_alpha    119.82849840019595
_cell_angle_beta     91.91853466428391
_cell_angle_gamma    90.40596665473856

_space_group_name_H-M_alt    "P 1"
_space_group_IT_number       1

loop_
  _space_group_symop_operation_xyz
  'x, y, z'

loop_
  _atom_site_type_symbol
  _atom_site_label
  _atom_site_symmetry_multiplicity
  _atom_site_fract_x
  _atom_site_fract_y
  _atom_site_fract_z
  _atom_site_occupancy
  Al  Al1       1.0  0.007786259083332  0.0004215352685789997  0.5003324035233447  1.0000
  H   H1        1.0  0.7779146905101796  0.3037285434593571  0.40489907556499816  1.0000
  H   H2        1.0  0.779517161260337  0.0945639209285574  0.8994843819429407  1.0000
  H   H3        1.0  0.7200042150740201  0.605260958817553  0.19436477545391992  1.0000
  H   H4        1.0  0.2845755945908052  0.3033085459510759  0.8940693448981066  1.0000
  H   H5        1.0  0.259629591382648  0.5988622135855054  0.4024324358094661  1.0000
  H   H6        1.0  0.24620912884102347  0.09192075134344443  0.1934884309099303  1.0000
  H   H7        1.0  0.10875834064079729  0.9766112875911193  0.30368736130157  1.0000
  H   H8        1.0  0.014523890553967144  0.9850279298896186  0.21538996763818827  1.0000
  H   H9        1.0  0.8996484732501387  0.19642832088241144  0.5243606491572947  1.0000
  H   H10       1.0  0.0014733947983386825  0.2832053736992748  0.5140492390855371  1.0000
  H   H11       1.0  0.1316807912682307  0.8242886975640291  0.521318951862412  1.0000
  H   H12       1.0  0.04803399503975921  0.7259406222031404  0.5104416850807496  1.0000
  H   H13       1.0  0.8408663793477229  0.8324000278029332  0.3038294207871174  1.0000
  H   H14       1.0  0.9229400525784897  0.7366049982429245  0.21610541500719893  1.0000
  H   H15       1.0  0.1606412902134693  0.19536691812788837  0.6679985741893687  1.0000
  H   H16       1.0  0.07138561947744651  0.2821978591203803  0.76365797094369  1.0000
  H   H17       1.0  0.9073985747423735  0.9780408013470566  0.6755142700497316  1.0000
  H   H18       1.0  0.9996792249745707  0.9880683329432218  0.7730924663942672  1.0000
  C   C1        1.0  0.5024620725286296  0.06774954678335383  0.4332855583931803  1.0000
  C   C2        1.0  0.528328679937921  0.0670150725945433  0.6338734568430906  1.0000
  C   C3        1.0  0.4933163912171921  0.8662791758613296  0.43252835275502827  1.0000
  C   C4        1.0  0.6605716498248597  0.24018214452361528  0.3772203707408437  1.0000
  C   C5        1.0  0.5125121747061456  0.2016133778867228  0.2953055441273733  1.0000
  C   C6        1.0  0.6718765203078262  0.12204697566944131  0.8627322858002984  1.0000
  C   C7        1.0  0.5311684873349378  0.20269925150653026  0.9044976448887567  1.0000
  C   C8        1.0  0.491077319558748  0.5943128949119654  0.2946321635749952  1.0000
  C   C9        1.0  0.6184576827944709  0.6396269019171258  0.2574693349618045  1.0000
  C   C10       1.0  0.39383153817948363  0.2403650792102994  0.859687382693366  1.0000
  C   C11       1.0  0.3790496012682424  0.19565549811999017  0.7709988695721036  1.0000
  C   C12       1.0  0.5338920864267038  0.11382431121815981  0.726389193142424  1.0000
  C   C13       1.0  0.6894597854867895  0.07845796143816841  0.7742937390199245  1.0000
  C   C14       1.0  0.6324715513708625  0.7287524388032626  0.30280446970952124  1.0000
  C   C15       1.0  0.4878368601031795  0.7733220289356241  0.38490587556494665  1.0000
  C   C16       1.0  0.3417108912190656  0.7249913859580842  0.4197743334209746  1.0000
  C   C17       1.0  0.3593888188726026  0.6360467022576871  0.3753651870400461  1.0000
  C   C18       1.0  0.36177785033228815  0.12014082841451311  0.2573691888056402  1.0000
  C   C19       1.0  0.3414839946674562  0.07694974201892531  0.30309474925053337  1.0000
  C   C20       1.0  0.5055531492971141  0.11350171014775162  0.3860764029875767  1.0000
  C   C21       1.0  0.6742182945511174  0.19571825681412494  0.421848056671891  1.0000
  C   C22       1.0  0.5058331717683869  0.37727386770556154  0.25370600376368196  1.0000
  C   C23       1.0  0.5203984220466822  0.24304591127605593  0.12015526905170758  1.0000
  C   C24       1.0  0.5134698490354452  0.248364580939878  0.24828524023035917  1.0000
  C   C25       1.0  0.4978021951483314  0.5006241031528165  0.24794089489621735  1.0000
  C   C26       1.0  0.5115985457975185  0.37771112341700075  0.12002039055064272  1.0000
  C   C27       1.0  0.525789728879019  0.24917835379922348  0.9976954977553092  1.0000
  N   N1        1.0  0.5126725421425034  0.3326546489394531  0.1646209412263033  1.0000
  N   N2        1.0  0.5128269833958896  0.20137254482028777  0.1632529429646539  1.0000
  N   N3        1.0  0.5144041150949404  0.3338336680168795  0.2950524693518943  1.0000
  N   N4        1.0  0.49049966348508167  0.4618507418863231  0.2946219884711709  1.0000
  N   N5        1.0  0.5118087131749789  0.4624942486717032  0.1631263133330521  1.0000
  N   N6        1.0  0.535311304402313  0.20200088495926147  0.03604726644110201  1.0000
  N   N7        1.0  0.5105896364365634  0.3344886927669678  0.03570149629789651  1.0000
  N   N8        1.0  0.18339150917623928  0.9975428687540318  0.2641349005128718  1.0000
  N   N9        1.0  0.8298695394668626  0.23554080292371543  0.5017518541159233  1.0000
  N   N10       1.0  0.20600340032966358  0.7633864439042386  0.4987445652272555  1.0000
  N   N11       1.0  0.7652633011302399  0.7708514283578723  0.26422491719971924  1.0000
  N   N12       1.0  0.23492924092633413  0.23482411641007422  0.7296075398676576  1.0000
  N   N13       1.0  0.8353344524650337  0.9997005276195452  0.7357846406089052  1.0000
  O   O1        1.0  0.26989935769106665  0.9058963890606224  0.4894708867624332  1.0000
  O   O2        1.0  0.26204109561621175  0.011285175377970805  0.4169278268188776  1.0000
  O   O3        1.0  0.2925484931115107  0.08307467668353752  0.5922485260683601  1.0000
  O   O4        1.0  0.7238077193322567  0.9081371849300414  0.4171296434262786  1.0000
  O   O5        1.0  0.7557730615705792  0.010336658353395504  0.5944694133357868  1.0000
  O   O6        1.0  0.7416869660955001  0.08424775526658833  0.49097298743478035  1.0000
