data_image0
_chemical_formula_structural       Zn4H64C65O13
_chemical_formula_sum              "Zn4 H64 C65 O13"
_cell_length_a       19.463623087157043
_cell_length_b       19.50858360665209
_cell_length_c       19.550072428507114
_cell_angle_alpha    90.01585859404443
_cell_angle_beta     84.80229992453131
_cell_angle_gamma    84.74660487660412

_space_group_name_H-M_alt    "P 1"
_space_group_IT_number       1

loop_
  _space_group_symop_operation_xyz
  'x, y, z'

loop_
  _atom_site_type_symbol
  _atom_site_label
  _atom_site_symmetry_multiplicity
  _atom_site_fract_x
  _atom_site_fract_y
  _atom_site_fract_z
  _atom_site_occupancy
  Zn  Zn1       1.0  0.5580998910961056  0.5561253287404642  0.4410340002723885  1.0000
  Zn  Zn2       1.0  0.5600980448138912  0.43517745675005426  0.550873747793446  1.0000
  Zn  Zn3       1.0  0.4477899842961576  0.44615459651674183  0.44472708137275424  1.0000
  Zn  Zn4       1.0  0.43652808227425066  0.5588301234169251  0.5648146138695012  1.0000
  H   H1        1.0  0.5392439440378995  0.7650136585816939  0.4054070317856215  1.0000
  H   H2        1.0  0.7700515705356779  0.5871873883082658  0.444045158216568  1.0000
  H   H3        1.0  0.771099350646189  0.38009609832483454  0.5181946687199073  1.0000
  H   H4        1.0  0.010147761681018606  0.421981986001434  0.4811816341332147  1.0000
  H   H5        1.0  0.89835959304245  0.5801656383360552  0.4445405716961731  1.0000
  H   H6        1.0  0.231398567889272  0.6183067441047285  0.5058912814025547  1.0000
  H   H7        1.0  0.99145791600138  0.5783988722991323  0.5035474623582274  1.0000
  H   H8        1.0  0.10165050132270181  0.4128258230546463  0.5164628413656089  1.0000
  H   H9        1.0  0.49333006043367084  0.2414256145798745  0.3762627543163006  1.0000
  H   H10       1.0  0.5261856352238469  0.9975643408092697  0.4129757921237172  1.0000
  H   H11       1.0  0.4512485387777901  0.8976779943202904  0.6172052868115898  1.0000
  H   H12       1.0  0.6151269997349402  0.4554297310858005  0.7498896564700601  1.0000
  H   H13       1.0  0.5462326588418236  0.0928278907514724  0.5738137975008897  1.0000
  H   H14       1.0  0.44375052970615775  0.7708096248236984  0.6123385880121006  1.0000
  H   H15       1.0  0.48720145783141794  0.0010543579024969003  0.5687898738692567  1.0000
  H   H16       1.0  0.5461695002558712  0.8909730454972548  0.4086832468432889  1.0000
  H   H17       1.0  0.4101881487166422  0.04308122323936199  0.3831816124429325  1.0000
  H   H18       1.0  0.37856398876898817  0.12617615703414492  0.3569732517939386  1.0000
  H   H19       1.0  0.4097775630984232  0.061960252607356416  0.2941730395410005  1.0000
  H   H20       1.0  0.4975581087050501  0.14692153895200016  0.3042802286181185  1.0000
  H   H21       1.0  0.5299849436894207  0.06408209308932561  0.3281542702922025  1.0000
  H   H22       1.0  0.6444090365471595  0.3309302181439904  0.3312757580875214  1.0000
  H   H23       1.0  0.41020244742466616  0.5590169472106085  0.7804855897221259  1.0000
  H   H24       1.0  0.666437397644053  0.28616985042270227  0.2521025901625364  1.0000
  H   H25       1.0  0.7256715792029736  0.3393853284525292  0.2844073790463072  1.0000
  H   H26       1.0  0.665319904341132  0.4000667355426232  0.18959579013753822  1.0000
  H   H27       1.0  0.6446107524767798  0.44444511872752923  0.2682432118589091  1.0000
  H   H28       1.0  0.534006956690135  0.3864037327166018  0.286314112117978  1.0000
  H   H29       1.0  0.5534024970245639  0.34433034350962544  0.20690195221614266  1.0000
  H   H30       1.0  0.36956353829333477  0.5848482396840639  0.32590279137018296  1.0000
  H   H31       1.0  0.35533667504194  0.6762034898925081  0.3245313153475636  1.0000
  H   H32       1.0  0.33288745242423795  0.6260788195583303  0.2551446336215193  1.0000
  H   H33       1.0  0.4804703629499443  0.6421425103239214  0.2948521509585262  1.0000
  H   H34       1.0  0.5856410733739779  0.49829940842559495  0.9862195921184593  1.0000
  H   H35       1.0  0.44364024036720195  0.6803950890555657  0.22337568801602  1.0000
  H   H36       1.0  0.5336015500241088  0.29895215560112837  0.9797949830127308  1.0000
  H   H37       1.0  0.5584032650450369  0.2520956732522777  0.05277804245893242  1.0000
  H   H38       1.0  0.4735910336418243  0.24933634336476732  0.026661156130835202  1.0000
  H   H39       1.0  0.46961568771259005  0.3291627889276754  0.1284474931228061  1.0000
  H   H40       1.0  0.44680851476763905  0.3756215562154281  0.055416434386018  1.0000
  H   H41       1.0  0.5682849802775252  0.4073181531759219  0.033432599276800104  1.0000
  H   H42       1.0  0.5914427819526936  0.36375588998559055  0.10730822279870723  1.0000
  H   H43       1.0  0.15677876189433698  0.3358343129699435  0.5939635336423948  1.0000
  H   H44       1.0  0.15549562636891784  0.31102351971541964  0.5066343037694949  1.0000
  H   H45       1.0  0.4406054710324696  0.618260446723795  0.11855864575787219  1.0000
  H   H46       1.0  0.2206767086747234  0.2730820095654635  0.5557455699059588  1.0000
  H   H47       1.0  0.26885872977717895  0.3613913526009683  0.47670971040309246  1.0000
  H   H48       1.0  0.2755571563365393  0.380190962201489  0.5627619721190484  1.0000
  H   H49       1.0  0.062152276527903894  0.7920332139096403  0.5373192044648931  1.0000
  H   H50       1.0  0.9832786132307733  0.754726344898785  0.5302124535544976  1.0000
  H   H51       1.0  0.007453381331458813  0.7764386337132336  0.6123435842176477  1.0000
  H   H52       1.0  0.029630023541940893  0.6485765029928032  0.5913688166503732  1.0000
  H   H53       1.0  0.1075359882185438  0.6853329563703313  0.6002064894775786  1.0000
  H   H54       1.0  0.1337217653723073  0.6877122491904191  0.473590794609656  1.0000
  H   H55       1.0  0.05444451007814169  0.6549963786606413  0.4611837140164994  1.0000
  H   H56       1.0  0.6271113481784029  0.46424539871836856  0.8753175709489653  1.0000
  H   H57       1.0  0.9584972037791174  0.3071789243916642  0.6133297608760415  1.0000
  H   H58       1.0  0.8880108485442122  0.3700202168877383  0.6365484523332584  1.0000
  H   H59       1.0  0.9686219174949571  0.3962752665374796  0.6016443234484329  1.0000
  H   H60       1.0  0.8728535185456252  0.31136616598215744  0.5249381295770092  1.0000
  H   H61       1.0  0.9533027011666065  0.3354515802748567  0.4894678525075521  1.0000
  H   H62       1.0  0.42947221186110346  0.5399124978458263  0.013346056727954192  1.0000
  H   H63       1.0  0.5447734091342157  0.22013091988515043  0.5845543092224545  1.0000
  H   H64       1.0  0.4203348234632642  0.5663832416306321  0.9057809202921376  1.0000
  C   C1        1.0  0.5046175431214337  0.49971675727515935  0.682809912501952  1.0000
  C   C2        1.0  0.5013354039636867  0.9782197966563971  0.5177515982657256  1.0000
  C   C3        1.0  0.5167595794591335  0.020149611529660702  0.46446561450682117  1.0000
  C   C4        1.0  0.5029579719397573  0.5082377836803574  0.3169296292481292  1.0000
  C   C5        1.0  0.5172598241062758  0.2384320741196504  0.4813504840363265  1.0000
  C   C6        1.0  0.5009176978862158  0.5119205715383331  0.2405442129586106  1.0000
  C   C7        1.0  0.5268300041273406  0.4540725217253298  0.20003717565911933  1.0000
  C   C8        1.0  0.5234523371179165  0.4563485000864631  0.1282207861920241  1.0000
  C   C9        1.0  0.4914520134161434  0.5163603084667943  0.0991853083857706  1.0000
  C   C10       1.0  0.4649914524548323  0.5723599625133673  0.1418093455065232  1.0000
  C   C11       1.0  0.4706780416704248  0.5723572628450599  0.21233732258099278  1.0000
  C   C12       1.0  0.4985014651354333  0.9040624778985988  0.513254160975798  1.0000
  C   C13       1.0  0.5792188309582614  0.48464608976360074  0.8545577057902847  1.0000
  C   C14       1.0  0.5728856815481791  0.47957501321107543  0.7846269523663737  1.0000
  C   C15       1.0  0.45717942729232425  0.5377438491686206  0.8021229982274036  1.0000
  C   C16       1.0  0.6861052673653064  0.48838522621283426  0.484408393298665  1.0000
  C   C17       1.0  0.4632530109866196  0.5415944720166975  0.8721570167696983  1.0000
  C   C18       1.0  0.524186651973217  0.5142400516795221  0.9001150240627284  1.0000
  C   C19       1.0  0.48228845307109225  0.523288690945641  0.025398751207610804  1.0000
  C   C20       1.0  0.5326572481124644  0.5124337055836962  0.9734709027994342  1.0000
  C   C21       1.0  0.5115365531281952  0.5057334520597793  0.7576746333526998  1.0000
  C   C22       1.0  0.2382034642878565  0.5082898505051858  0.5122315210097739  1.0000
  C   C23       1.0  0.47014583385239195  0.868662701904242  0.5704408337846445  1.0000
  C   C24       1.0  0.20195652650539125  0.44840988285958644  0.5152930079981815  1.0000
  C   C25       1.0  0.13074775232063732  0.4578813446788459  0.5115739485765403  1.0000
  C   C26       1.0  0.09395411944127122  0.5225431729142259  0.5030675321685152  1.0000
  C   C27       1.0  0.13069877831556911  0.5820541204803221  0.5014690078098738  1.0000
  C   C28       1.0  0.31498161684979203  0.5050108156118825  0.5127375973012605  1.0000
  C   C29       1.0  0.20202175501643885  0.5732058569242542  0.506928086781933  1.0000
  C   C30       1.0  0.8702489383763137  0.5366390155766396  0.4621438150794789  1.0000
  C   C31       1.0  0.7988535922471914  0.5408072857612256  0.4612092944901676  1.0000
  C   C32       1.0  0.7998682014129984  0.4237493306230675  0.5024656873922099  1.0000
  C   C33       1.0  0.8717929151303708  0.4182209840721781  0.5026299350189234  1.0000
  C   C34       1.0  0.46579935214538176  0.7979649340285563  0.5680997348796384  1.0000
  C   C35       1.0  0.9079200681907125  0.4764305208749705  0.48354954310420345  1.0000
  C   C36       1.0  0.019417740015391906  0.5273307124829715  0.49721551393686514  1.0000
  C   C37       1.0  0.982621409979579  0.4733133247789  0.48641695017228415  1.0000
  C   C38       1.0  0.7628643999008419  0.48428404995948443  0.48244147584176733  1.0000
  C   C39       1.0  0.5135471346914642  0.3146479888089716  0.48779624594273224  1.0000
  C   C40       1.0  0.4898030533858844  0.684188341924596  0.506044762020892  1.0000
  C   C41       1.0  0.4908824573311675  0.7603473262144366  0.5085162703806958  1.0000
  C   C42       1.0  0.5194945574882509  0.7948986482251997  0.4512319521721793  1.0000
  C   C43       1.0  0.5229994149125403  0.8654504864219845  0.45348969115976695  1.0000
  C   C44       1.0  0.49117031047922677  0.1072614711223849  0.3437483372049003  1.0000
  C   C45       1.0  0.5331599682896381  0.1255879212144464  0.5308053052211292  1.0000
  C   C46       1.0  0.41821514411623184  0.0831288424333039  0.3445218476482736  1.0000
  C   C47       1.0  0.5603726033243674  0.39186765748058155  0.23465708969587246  1.0000
  C   C48       1.0  0.6380939777711632  0.39627995683628825  0.24122045531668593  1.0000
  C   C49       1.0  0.6705042383904427  0.3348675294376023  0.2792693201143948  1.0000
  C   C50       1.0  0.4439998607241193  0.6345891449870464  0.2562425437203117  1.0000
  C   C51       1.0  0.37119517390434714  0.6300783468292795  0.2925991469640721  1.0000
  C   C52       1.0  0.5480184617146904  0.3929840805482954  0.0849919025958314  1.0000
  C   C53       1.0  0.4901974050384937  0.3456148357137536  0.0772933743828261  1.0000
  C   C54       1.0  0.5151610672001324  0.28301790373928537  0.031730255555942215  1.0000
  C   C55       1.0  0.23749147886746158  0.3771047948437385  0.5247879157959403  1.0000
  C   C56       1.0  0.5329746534824908  0.19639696865742456  0.5370690893886518  1.0000
  C   C57       1.0  0.1896773437346155  0.32154207737168866  0.5464451741256938  1.0000
  C   C58       1.0  0.095637468246224  0.653887052900089  0.49637823221129207  1.0000
  C   C59       1.0  0.06516803756976941  0.683914395605065  0.5666334673893374  1.0000
  C   C60       1.0  0.027489417874740185  0.7556651422242738  0.5614173798542197  1.0000
  C   C61       1.0  0.9084360808419092  0.3519398299676198  0.5261369463821524  1.0000
  C   C62       1.0  0.9323766286756057  0.3566110224418326  0.5985763936607853  1.0000
  C   C63       1.0  0.504501354762013  0.20803311134628188  0.4193835335199267  1.0000
  C   C64       1.0  0.5060510488820357  0.13680444858714944  0.4116754460309764  1.0000
  C   C65       1.0  0.5187086870006682  0.0944499801941419  0.4691853349394749  1.0000
  O   O1        1.0  0.5003860077571362  0.5004145107059088  0.501521186622533  1.0000
  O   O2        1.0  0.5370101311699926  0.3397101037062385  0.5405514872998509  1.0000
  O   O3        1.0  0.4570215789336416  0.6558183361680677  0.556440852875312  1.0000
  O   O4        1.0  0.4864322729976109  0.3495814627261709  0.4399843127305587  1.0000
  O   O5        1.0  0.5223993657009061  0.6531927195574171  0.45344511671226684  1.0000
  O   O6        1.0  0.6555267676342282  0.5425809438227703  0.45972929496983284  1.0000
  O   O7        1.0  0.3398941978050872  0.5534346195616068  0.543937307345864  1.0000
  O   O8        1.0  0.5533304829912424  0.46328295982920054  0.6474291255051483  1.0000
  O   O9        1.0  0.45439636017705  0.47841402016310036  0.3494612473275964  1.0000
  O   O10       1.0  0.45085129374482596  0.5309287086068438  0.6597234789132785  1.0000
  O   O11       1.0  0.5518898005073893  0.53523564674326  0.3430405415703319  1.0000
  O   O12       1.0  0.656313601878395  0.43761975151173993  0.5109408665739537  1.0000
  O   O13       1.0  0.3502181744267929  0.4543683321180795  0.4806494108215631  1.0000
