data_image0
_chemical_formula_structural       Zn16H48C112S8Br8O56
_chemical_formula_sum              "Zn16 H48 C112 S8 Br8 O56"
_cell_length_a       18.585569838289757
_cell_length_b       19.69466352965553
_cell_length_c       32.74512933269292
_cell_angle_alpha    86.1010786927739
_cell_angle_beta     73.62607844076126
_cell_angle_gamma    62.04814845958679

_space_group_name_H-M_alt    "P 1"
_space_group_IT_number       1

loop_
  _space_group_symop_operation_xyz
  'x, y, z'

loop_
  _atom_site_type_symbol
  _atom_site_label
  _atom_site_symmetry_multiplicity
  _atom_site_fract_x
  _atom_site_fract_y
  _atom_site_fract_z
  _atom_site_occupancy
  Zn  Zn1       1.0  0.8729139400094253  0.5543657710336233  0.518365747339729  1.0000
  Zn  Zn2       1.0  0.03857730786948805  0.48356724165805803  0.43824593384948685  1.0000
  Zn  Zn3       1.0  0.04351004739410062  0.3992339833236682  0.5239385732808657  1.0000
  Zn  Zn4       1.0  0.04439008535798185  0.5621690781971296  0.5176300329065812  1.0000
  Zn  Zn5       1.0  0.6252705970660057  0.19187344301786166  0.7328634116449777  1.0000
  Zn  Zn6       1.0  0.4640268456243107  0.35043603812815144  0.7251166380926222  1.0000
  Zn  Zn7       1.0  0.45610591582097737  0.2657464574679124  0.8123067193496498  1.0000
  Zn  Zn8       1.0  0.45357764334026035  0.19337939463656537  0.7284325018769737  1.0000
  Zn  Zn9       1.0  0.46253807541209124  0.7633234963095247  0.31273472541408154  1.0000
  Zn  Zn10      1.0  0.45358052851815966  0.6905787854837795  0.2319325359583502  1.0000
  Zn  Zn11      1.0  0.6250670207404311  0.6948777885972888  0.22947135524192672  1.0000
  Zn  Zn12      1.0  0.4567996449440414  0.850854917792347  0.2256102063525277  1.0000
  Zn  Zn13      1.0  0.036720085822672346  0.8996983939130061  0.024467901413743203  1.0000
  Zn  Zn14      1.0  0.0500475203657516  0.0572932040235301  0.018810262768980103  1.0000
  Zn  Zn15      1.0  0.8762804014311529  0.05779969308174059  0.019501556386700272  1.0000
  Zn  Zn16      1.0  0.0370307010582493  0.986423196650982  0.9371925877394888  1.0000
  H   H1        1.0  0.8054967916316328  0.9638358120695895  0.6549496921684224  1.0000
  H   H2        1.0  0.3129507541011024  0.9741917114997063  0.4014050313764345  1.0000
  H   H3        1.0  0.8114010245632102  0.24206018836986934  0.6545689766140229  1.0000
  H   H4        1.0  0.5478007103832495  0.48388316503953643  0.6190793720334542  1.0000
  H   H5        1.0  0.5525386491284865  0.5250553578603387  0.6643738893739412  1.0000
  H   H6        1.0  0.6541525021364335  0.5677005522238119  0.6160102826422433  1.0000
  H   H7        1.0  0.6496974967994116  0.5261618722740877  0.5707772443501328  1.0000
  H   H8        1.0  0.2929261164104632  0.6046690532409825  0.296056374331485  1.0000
  H   H9        1.0  0.3487004348821544  0.6723354561114688  0.43602029696554473  1.0000
  H   H10       1.0  0.2585765926332684  0.7612009678574265  0.4336875058342856  1.0000
  H   H11       1.0  0.161350301722635  0.7108532230110641  0.47826387743816673  1.0000
  H   H12       1.0  0.2511861013052155  0.6223651974660244  0.48095392162581174  1.0000
  H   H13       1.0  0.8090748534997163  0.6023991832547821  0.29469849035506007  1.0000
  H   H14       1.0  0.5488410883282029  0.7614178111821273  0.4308614986917831  1.0000
  H   H15       1.0  0.5435545359637076  0.6731255118284594  0.43287444247193463  1.0000
  H   H16       1.0  0.6437146310326299  0.6223636877777636  0.4790038928973317  1.0000
  H   H17       1.0  0.6495660805221422  0.710233195895398  0.4766766396706714  1.0000
  H   H18       1.0  0.30999256486863663  0.45625641084387064  0.6459764840138933  1.0000
  H   H19       1.0  0.3267114511011755  0.18068903622429386  0.6288226406535742  1.0000
  H   H20       1.0  0.23635992422211424  0.22216671632706653  0.6742763637770965  1.0000
  H   H21       1.0  0.14090227074429862  0.27676210366578846  0.6256975146775049  1.0000
  H   H22       1.0  0.23136604066272787  0.23538017933604033  0.580376011571289  1.0000
  H   H23       1.0  0.18742149335852792  0.6600111150271103  0.9626268948320917  1.0000
  H   H24       1.0  0.6905859708424985  0.14728925359595016  0.9559566758104695  1.0000
  H   H25       1.0  0.9521377125083035  0.07962254664017367  0.815989272414605  1.0000
  H   H26       1.0  0.9483560935232164  0.990816069000779  0.8182543769612992  1.0000
  H   H27       1.0  0.8453077237669081  0.041407886501339385  0.7734967300967456  1.0000
  H   H28       1.0  0.8492855316085652  0.13017751369288527  0.7714747439306324  1.0000
  H   H29       1.0  0.191170391983448  0.05290891066994868  0.8449072372169867  1.0000
  H   H30       1.0  0.172791569991027  0.21619329954270222  0.9750116347868955  1.0000
  H   H31       1.0  0.2637827152022112  0.1277216792082427  0.9769189042151043  1.0000
  H   H32       1.0  0.35828011473479654  0.17418853791843247  0.9254216290082553  1.0000
  H   H33       1.0  0.2674492916599149  0.26222206701068973  0.923517842476187  1.0000
  H   H34       1.0  0.9272074603807495  0.28385789476902074  0.09401379086256158  1.0000
  H   H35       1.0  0.19187763348659814  0.7944634193316344  0.10294324564139148  1.0000
  H   H36       1.0  0.263259120141953  0.030081212780039796  0.07514319865931181  1.0000
  H   H37       1.0  0.17233678821512646  0.07151391800632471  0.12043098493907683  1.0000
  H   H38       1.0  0.26691279757197617  0.017408586539097798  0.16921547476172094  1.0000
  H   H39       1.0  0.3577829873989631  0.9762333772965943  0.1240952773782311  1.0000
  H   H40       1.0  0.6912844148869937  0.006556410054294299  0.09570975399270051  1.0000
  H   H41       1.0  0.9492131183242312  0.7223004623042396  0.08592000561861815  1.0000
  H   H42       1.0  0.953111946576989  0.7632453345632014  0.13152857467349582  1.0000
  H   H43       1.0  0.850687091836342  0.7212115844679585  0.17912427089046903  1.0000
  H   H44       1.0  0.8462845691417585  0.6804476829616205  0.13355051541218188  1.0000
  H   H45       1.0  0.6199915697335285  0.8225427901942408  0.607831740462686  1.0000
  H   H46       1.0  0.21319955806645655  0.2606452249808766  0.31332580175210734  1.0000
  H   H47       1.0  0.28593817210426675  0.6519113235731239  0.7751879789405011  1.0000
  H   H48       1.0  0.5538763814152787  0.4302395644276941  0.1435474601636102  1.0000
  C   C1        1.0  0.863054094904605  0.5671898332890423  0.430032621971293  1.0000
  C   C2        1.0  0.12454262250400928  0.3146004877978398  0.4393768265310457  1.0000
  C   C3        1.0  0.8675533035127716  0.42603857070490386  0.568777958510509  1.0000
  C   C4        1.0  0.13903377594892424  0.437046999111601  0.5679415382002304  1.0000
  C   C5        1.0  0.8714348780737996  0.6843790574536965  0.5602102127320095  1.0000
  C   C6        1.0  0.13756069768813722  0.5684618446061122  0.43035348147783037  1.0000
  C   C7        1.0  0.6398711908650726  0.31762520274191514  0.6814687904891272  1.0000
  C   C8        1.0  0.37620402023645744  0.4349302370769975  0.810312592229643  1.0000
  C   C9        1.0  0.6322910068952436  0.18206404505210833  0.8214820757368531  1.0000
  C   C10       1.0  0.3609550768015666  0.18021683875161187  0.816423149074595  1.0000
  C   C11       1.0  0.6258287747239564  0.06611098602151337  0.6884455592252082  1.0000
  C   C12       1.0  0.362690122268262  0.3189266715305123  0.6802004832058159  1.0000
  C   C13       1.0  0.3623201956968031  0.681772406021899  0.32071242788423154  1.0000
  C   C14       1.0  0.6243386161988127  0.5664099990554945  0.18874520732723715  1.0000
  C   C15       1.0  0.6378459192999133  0.6825233218341037  0.31855104364920817  1.0000
  C   C16       1.0  0.6330670242855805  0.8226238838024925  0.18026806376133203  1.0000
  C   C17       1.0  0.3752673112447197  0.9332334100155392  0.31138779549054624  1.0000
  C   C18       1.0  0.36064076804304096  0.8158669465095867  0.18138073600372448  1.0000
  C   C19       1.0  0.13848184046711512  0.9316315820591254  0.068578931227961  1.0000
  C   C20       1.0  0.8794097449798386  0.1840608317013306  0.0613546956907385  1.0000
  C   C21       1.0  0.8624218396301943  0.9305449696466962  0.06922007054219384  1.0000
  C   C22       1.0  0.8620344562216218  0.06898046299064478  0.9309569585490678  1.0000
  C   C23       1.0  0.12165163656842992  0.8163903271714189  0.9388608611253418  1.0000
  C   C24       1.0  0.13858890427690806  0.06879155060784829  0.9308306335740897  1.0000
  C   C25       1.0  0.7337855931433666  0.8032736785091287  0.6008881311799571  1.0000
  C   C26       1.0  0.761640723017386  0.9462864363520043  0.6490673170233026  1.0000
  C   C27       1.0  0.821726603026349  0.7584706282044348  0.5855678212904749  1.0000
  C   C28       1.0  0.6744608211238516  0.9908979480614302  0.6637600269357123  1.0000
  C   C29       1.0  0.783601517862955  0.8779572172035656  0.6260509851133094  1.0000
  C   C30       1.0  0.7122198508517172  0.8718271901754023  0.623941773267518  1.0000
  C   C31       1.0  0.2018211521586438  0.22680853706715703  0.3698691780525821  1.0000
  C   C32       1.0  0.29947959493473775  0.021055500110165295  0.38037324279348894  1.0000
  C   C33       1.0  0.1741448892261346  0.24051382467069252  0.4142555065871178  1.0000
  C   C34       1.0  0.3262392058328629  0.0079916802325073  0.3364054569116775  1.0000
  C   C35       1.0  0.2541056607973644  0.10073989722322098  0.3928091712618881  1.0000
  C   C36       1.0  0.24749542172386185  0.146627070486872  0.3577897814349954  1.0000
  C   C37       1.0  0.6975259765286949  0.34513607362240606  0.6530636098764689  1.0000
  C   C38       1.0  0.8134216906015296  0.3949356247856314  0.5974538033984802  1.0000
  C   C39       1.0  0.668573650538484  0.4166592726673172  0.6359238309184791  1.0000
  C   C40       1.0  0.8423207225887521  0.32195416160676865  0.6150341356138115  1.0000
  C   C41       1.0  0.7249421114175973  0.43991113310210755  0.6092970569381537  1.0000
  C   C42       1.0  0.7861986692524924  0.29841460332895037  0.6418625889673282  1.0000
  C   C43       1.0  0.5905900153139854  0.4906364747411728  0.6337881259499057  1.0000
  C   C44       1.0  0.654196340034794  0.5172312138986824  0.6036224077012164  1.0000
  C   C45       1.0  0.30510256731697893  0.6537076258029941  0.3488155413978475  1.0000
  C   C46       1.0  0.1938773926905384  0.5963014604712669  0.4009128686971267  1.0000
  C   C47       1.0  0.27904273315476075  0.6643794415879254  0.3932103891298909  1.0000
  C   C48       1.0  0.22058563310151408  0.5859473567349055  0.35557304717731614  1.0000
  C   C49       1.0  0.22542372545468248  0.6365347905031765  0.4178794583110061  1.0000
  C   C50       1.0  0.27420222513812587  0.6137961520476977  0.3306727003312986  1.0000
  C   C51       1.0  0.28487069560970485  0.6981912535642606  0.43161942071079556  1.0000
  C   C52       1.0  0.2240157025667741  0.6667268024368055  0.45965968469194257  1.0000
  C   C53       1.0  0.6947558192013403  0.6531698589853503  0.34680224137474625  1.0000
  C   C54       1.0  0.8091878867478715  0.5945887105826198  0.40008746291520947  1.0000
  C   C55       1.0  0.6650134998879338  0.6637961507034262  0.39116813335721906  1.0000
  C   C56       1.0  0.8389350062480857  0.5838960744188737  0.35473141961869464  1.0000
  C   C57       1.0  0.7206803022808116  0.6352517558827769  0.41643130230241354  1.0000
  C   C58       1.0  0.7833725221012742  0.6121975026620275  0.32926010141314077  1.0000
  C   C59       1.0  0.5865207524047167  0.6983657844827388  0.42902511702139634  1.0000
  C   C60       1.0  0.6494051038230493  0.6663284518148133  0.4577915485492242  1.0000
  C   C61       1.0  0.3057636183442867  0.34871568656627966  0.6519547302870521  1.0000
  C   C62       1.0  0.19603180034827977  0.4106236714135817  0.5963535474526511  1.0000
  C   C63       1.0  0.27142214073968063  0.307321748854214  0.6389973639059221  1.0000
  C   C64       1.0  0.23152995814935914  0.4522913084570844  0.6097638603438896  1.0000
  C   C65       1.0  0.21873832973332702  0.33773241448603386  0.6122448229375694  1.0000
  C   C66       1.0  0.28432197498022305  0.42220186919708164  0.6365544418607387  1.0000
  C   C67       1.0  0.2661797147211473  0.23261827467818819  0.6421178006737807  1.0000
  C   C68       1.0  0.20647721879969086  0.2668436956321896  0.6117942289956703  1.0000
  C   C69       1.0  0.29835178457472716  0.5833610099449443  0.819984405020904  1.0000
  C   C70       1.0  0.2004010714046205  0.6688540560467329  0.9287373956306553  1.0000
  C   C71       1.0  0.3268497061607433  0.5097201367618068  0.8348723432635908  1.0000
  C   C72       1.0  0.1721306206870139  0.7416246429798787  0.9137360617455955  1.0000
  C   C73       1.0  0.24643262486308978  0.610892915866053  0.8947226424975556  1.0000
  C   C74       1.0  0.25236044757783554  0.6410596621673007  0.8543988083741214  1.0000
  C   C75       1.0  0.8040150632387011  0.09768559756285809  0.9031948462750846  1.0000
  C   C76       1.0  0.686811338178252  0.15493231021150675  0.8511675820776291  1.0000
  C   C77       1.0  0.832220991448615  0.08719916006048578  0.8588019359232392  1.0000
  C   C78       1.0  0.6586667886740328  0.16521901531128688  0.8965129528054024  1.0000
  C   C79       1.0  0.7752397998111817  0.11510177970770027  0.8341974004175228  1.0000
  C   C80       1.0  0.7153834322457229  0.13773644094402465  0.9213671745638835  1.0000
  C   C81       1.0  0.9096851869532686  0.0537554289111242  0.8203855747611116  1.0000
  C   C82       1.0  0.8453397669658003  0.08534384730199207  0.7924273342550663  1.0000
  C   C83       1.0  0.19499501225909907  0.09713319751734417  0.9020442071886238  1.0000
  C   C84       1.0  0.3040380754185463  0.15073234104840338  0.8436993271018383  1.0000
  C   C85       1.0  0.22880178337986481  0.13749945276143904  0.9165981779575534  1.0000
  C   C86       1.0  0.26904625060706183  0.10967640372955148  0.8291874325087039  1.0000
  C   C87       1.0  0.2810608487187878  0.1629987288205967  0.8881436347714458  1.0000
  C   C88       1.0  0.2165422320278836  0.08407460526386497  0.8574869468097577  1.0000
  C   C89       1.0  0.23353322895744816  0.17049794745982888  0.9556573178162753  1.0000
  C   C90       1.0  0.2927710878468233  0.1994218073650558  0.9234592184746692  1.0000
  C   C91       1.0  0.6434865367204806  0.44791011740862524  0.14934510089668154  1.0000
  C   C92       1.0  0.8596924389526137  0.30259350028664034  0.10040697253555918  1.0000
  C   C93       1.0  0.6734986961686928  0.4921387442025562  0.16374968366560694  1.0000
  C   C94       1.0  0.8295752986365342  0.25901143929787906  0.08626183267107732  1.0000
  C   C95       1.0  0.7921778684933544  0.3715979333208209  0.12332878531677238  1.0000
  C   C96       1.0  0.7117896871532069  0.378962042418827  0.12617651311656883  1.0000
  C   C97       1.0  0.1948273052568156  0.902596248215367  0.09710912926620098  1.0000
  C   C98       1.0  0.30380446541153844  0.8419089156373543  0.15300010481459478  1.0000
  C   C99       1.0  0.22830185350242968  0.9446899589081778  0.11022968993281519  1.0000
  C   C100      1.0  0.26934610825765765  0.7993994144983103  0.13943499340711435  1.0000
  C   C101      1.0  0.280603946284515  0.9147828015554962  0.1371560531500648  1.0000
  C   C102      1.0  0.2168478696533569  0.8290619647336754  0.1124801366876866  1.0000
  C   C103      1.0  0.2330108224593346  0.019676664886119997  0.10721546183701491  1.0000
  C   C104      1.0  0.2922545692151812  0.9859305542229321  0.13778008217825297  1.0000
  C   C105      1.0  0.8046857354475565  0.9029083170427653  0.09731560828032572  1.0000
  C   C106      1.0  0.6877657642698692  0.8533998157447797  0.15193830351662288  1.0000
  C   C107      1.0  0.8330575233328119  0.8311234143738062  0.1141530523685006  1.0000
  C   C108      1.0  0.6594615716078566  0.9263889022338245  0.13437324516910826  1.0000
  C   C109      1.0  0.776189204897257  0.8080957188711008  0.14047381121593366  1.0000
  C   C110      1.0  0.7160627835985454  0.9500137802219865  0.10822539415465124  1.0000
  C   C111      1.0  0.910617139838841  0.7568475499213888  0.11643117915580357  1.0000
  C   C112      1.0  0.8464155020047033  0.7305844294454856  0.1462572532922906  1.0000
  S   S1        1.0  0.8772988610310152  0.7999564064900752  0.5994950792427503  1.0000
  S   S2        1.0  0.6182385458390629  0.9502581802879744  0.6499758655367316  1.0000
  S   S3        1.0  0.2042504643758107  0.1558754517034089  0.4407455939985497  1.0000
  S   S4        1.0  0.296785586448948  0.09202284685991197  0.3096857324449545  1.0000
  S   S5        1.0  0.297404828900504  0.5115229492514928  0.8905136516280195  1.0000
  S   S6        1.0  0.2013602207470342  0.7404693634237913  0.8582761738883563  1.0000
  S   S7        1.0  0.7842258546630277  0.44948296225830825  0.1489612901351975  1.0000
  S   S8        1.0  0.7191641285881616  0.30123149603287647  0.10068885929683798  1.0000
  Br  Br1       1.0  0.9593509240045037  0.24759720726351722  0.6038689965088865  1.0000
  Br  Br2       1.0  0.1860390185522078  0.5352151251084293  0.32344104521814643  1.0000
  Br  Br3       1.0  0.9560563307003852  0.5302891602173855  0.32329760557495035  1.0000
  Br  Br4       1.0  0.212115399655147  0.5528589473991586  0.5930070141217954  1.0000
  Br  Br5       1.0  0.5417644364273357  0.21681049880142916  0.9285725482304059  1.0000
  Br  Br6       1.0  0.2881865142088457  0.0852608183806112  0.7703307732708853  1.0000
  Br  Br7       1.0  0.28947399107919136  0.698778619892792  0.15614437379689153  1.0000
  Br  Br8       1.0  0.5425303973342678  0.00014704540681270041  0.14398590097487582  1.0000
  O   O1        1.0  0.9979433899027587  0.500679305976682  0.5006973024863512  1.0000
  O   O2        1.0  0.8231957703327881  0.5774759399894618  0.46985311370158916  1.0000
  O   O3        1.0  0.10023501630303842  0.3748031284845794  0.4187359783451613  1.0000
  O   O4        1.0  0.9476329281790117  0.38666871199357883  0.5609531880588889  1.0000
  O   O5        1.0  0.9430633209212262  0.536661822345934  0.41406781192459624  1.0000
  O   O6        1.0  0.8271327473673081  0.4912570932736457  0.5546246670380414  1.0000
  O   O7        1.0  0.10955966267253811  0.31237159096533407  0.48010040761540307  1.0000
  O   O8        1.0  0.11709606694530815  0.3881799776867679  0.5594684220428123  1.0000
  O   O9        1.0  0.9523156771807919  0.6579591104393072  0.5501069279524347  1.0000
  O   O10       1.0  0.11698053216227315  0.503973143075342  0.5545645172812073  1.0000
  O   O11       1.0  0.8314064362386663  0.652962620321581  0.550459644836998  1.0000
  O   O12       1.0  0.11677312974201465  0.525677561080812  0.4144031757978014  1.0000
  O   O13       1.0  0.11526235638711313  0.590063608516111  0.4699484613499295  1.0000
  O   O14       1.0  0.5007391441920673  0.24978307133982722  0.7497047629452002  1.0000
  O   O15       1.0  0.6744660540925198  0.2519318467217672  0.6961798516661661  1.0000
  O   O16       1.0  0.3991369332800403  0.4350545545067348  0.76972814957324  1.0000
  O   O17       1.0  0.5521405089752134  0.21708996697233826  0.8371504885947518  1.0000
  O   O18       1.0  0.5603130831739946  0.36273059046558126  0.6885105711547441  1.0000
  O   O19       1.0  0.6727599998559981  0.1669191324675907  0.7816947546814177  1.0000
  O   O20       1.0  0.3920822316370051  0.3754863544363899  0.8321911956752219  1.0000
  O   O21       1.0  0.38133745169964345  0.21916448210589579  0.8363883707077948  1.0000
  O   O22       1.0  0.5450344309503024  0.09669073207464858  0.6962033349443078  1.0000
  O   O23       1.0  0.3848254532342351  0.16466399193504339  0.7763466353830637  1.0000
  O   O24       1.0  0.6678156941540933  0.09376858714534819  0.6997241352772934  1.0000
  O   O25       1.0  0.38985719139120084  0.3627308682459399  0.6895787611200036  1.0000
  O   O26       1.0  0.3795772733455109  0.2514447794983211  0.6925281632980858  1.0000
  O   O27       1.0  0.5003095228618476  0.7506230950532213  0.2501855314645383  1.0000
  O   O28       1.0  0.38804987451640494  0.7175795340130048  0.33926269095929484  1.0000
  O   O29       1.0  0.5436892046903452  0.5942592539182456  0.20023630205538726  1.0000
  O   O30       1.0  0.6728599470653549  0.6705493229630122  0.2783716903623273  1.0000
  O   O31       1.0  0.3808022052229634  0.6676686698222554  0.2805821753163258  1.0000
  O   O32       1.0  0.558217533952316  0.7174295819871401  0.3374968560502866  1.0000
  O   O33       1.0  0.6670807085480774  0.5968512405071564  0.1969544127864893  1.0000
  O   O34       1.0  0.6729999371458605  0.7558528929912212  0.1929825909509191  1.0000
  O   O35       1.0  0.39138231905809556  0.9355420368603261  0.2707751149914658  1.0000
  O   O36       1.0  0.5529522436411086  0.8636724513377344  0.18941757429924883  1.0000
  O   O37       1.0  0.39708356915988935  0.8733991188592467  0.3324417644065605  1.0000
  O   O38       1.0  0.3824351820216307  0.7490927044506961  0.19485641894680583  1.0000
  O   O39       1.0  0.38307696136421027  0.8645102556585866  0.189730687298706  1.0000
  O   O40       1.0  0.0007457541291202984  0.00026400732543410276  0.999846896967455  1.0000
  O   O41       1.0  0.1114136732857817  0.8874237209134035  0.05952427601550879  1.0000
  O   O42       1.0  0.9601389867192155  0.1551271862029608  0.05118037729893386  1.0000
  O   O43       1.0  0.8277331144244188  0.9975799002578821  0.055981493282857266  1.0000
  O   O44       1.0  0.1220996907022355  0.9986424851061384  0.05566149142467938  1.0000
  O   O45       1.0  0.9420674501379268  0.8845169890162833  0.06073108899107639  1.0000
  O   O46       1.0  0.8365873761085041  0.15481212729167024  0.052196748166039704  1.0000
  O   O47       1.0  0.827532301590388  0.0818955923997251  0.971190659952349  1.0000
  O   O48       1.0  0.10254122158590208  0.8762416266629102  0.9174982295470998  1.0000
  O   O49       1.0  0.9416333357067401  0.03371905802988099  0.9119677925306893  1.0000
  O   O50       1.0  0.10146139453078006  0.8147216065908295  0.9794035196496652  1.0000
  O   O51       1.0  0.12169848788120417  0.08343688796173149  0.9708299994835131  1.0000
  O   O52       1.0  0.11201213141490741  0.0326443915242081  0.9132244194677812  1.0000
  O   O53       1.0  0.6774865916873268  0.7827832520345409  0.5941221902320848  1.0000
  O   O54       1.0  0.18643514014112125  0.283592517424509  0.3425959437457991  1.0000
  O   O55       1.0  0.3133279516354648  0.5965219851684435  0.7779654333958846  1.0000
  O   O56       1.0  0.5598610642439681  0.46937641079868786  0.1568484982942664  1.0000
