data_image0
_chemical_formula_structural       NiH46C44N2O6
_chemical_formula_sum              "Ni1 H46 C44 N2 O6"
_cell_length_a       7.834079199599017
_cell_length_b       10.756059241822578
_cell_length_c       11.38666502998539
_cell_angle_alpha    82.49970741178237
_cell_angle_beta     81.91239201677394
_cell_angle_gamma    70.66169188254129

_space_group_name_H-M_alt    "P 1"
_space_group_IT_number       1

loop_
  _space_group_symop_operation_xyz
  'x, y, z'

loop_
  _atom_site_type_symbol
  _atom_site_label
  _atom_site_symmetry_multiplicity
  _atom_site_fract_x
  _atom_site_fract_y
  _atom_site_fract_z
  _atom_site_occupancy
  Ni  Ni1       1.0  3.805185528345333e-06  0.49999331504902506  5.051457811999828e-06  1.0000
  H   H1        1.0  0.5300585635737461  0.2678266116691645  0.13042373079968425  1.0000
  H   H2        1.0  0.46994000102549177  0.7321734728540152  0.8695692271448862  1.0000
  H   H3        1.0  0.48603323979193636  0.42093682629390383  0.1878030311405681  1.0000
  H   H4        1.0  0.5139569546551285  0.5790613152666282  0.812196096503655  1.0000
  H   H5        1.0  0.7680365960677165  0.32893893482135184  0.29235486457677234  1.0000
  H   H6        1.0  0.2319564095491629  0.6710523021109651  0.7076501307750931  1.0000
  H   H7        1.0  0.7115793254870649  0.9635421463287064  0.8252949031191577  1.0000
  H   H8        1.0  0.2884200423333709  0.03643817216885031  0.1747020979192371  1.0000
  H   H9        1.0  0.6486977574604678  0.38136541649794264  0.477392938008343  1.0000
  H   H10       1.0  0.3513160236766878  0.6186198406599746  0.5226075970788812  1.0000
  H   H11       1.0  0.45835902421264035  0.8509689621327966  0.1678916372336587  1.0000
  H   H12       1.0  0.5416793416823252  0.14902918201111964  0.832125609973822  1.0000
  H   H13       1.0  0.9212688591413353  0.7367073374313123  0.8280686551739364  1.0000
  H   H14       1.0  0.07873758132898698  0.26327398115816447  0.17193381226891086  1.0000
  H   H15       1.0  0.6832858033887916  0.6280983709399025  0.15522917723045274  1.0000
  H   H16       1.0  0.31673818289281286  0.37189483113974126  0.8447836551447239  1.0000
  H   H17       1.0  0.7468538168688923  0.09143235365809232  0.09703841641844238  1.0000
  H   H18       1.0  0.25312470158498723  0.9085658142532009  0.9029633964825621  1.0000
  H   H19       1.0  0.2535115211612151  0.09905655028769195  0.5037158469033044  1.0000
  H   H20       1.0  0.7464711560527775  0.9009524982633651  0.4962878545526762  1.0000
  H   H21       1.0  0.9612742080609775  0.1350055548487603  0.4118486093316065  1.0000
  H   H22       1.0  0.03872657475645956  0.8649925421089368  0.5881426509871729  1.0000
  H   H23       1.0  0.45495200053317564  0.11892071601226922  0.3184308386716309  1.0000
  H   H24       1.0  0.5450258836063993  0.8810814273235156  0.6815758231513058  1.0000
  H   H25       1.0  0.2487220995506049  0.21954216291807438  0.6770314773666897  1.0000
  H   H26       1.0  0.7512657739582945  0.7804609421275688  0.32297163776151183  1.0000
  H   H27       1.0  0.1896978210997984  0.7754214297170422  0.23601305409788145  1.0000
  H   H28       1.0  0.8103012137365154  0.22458157285915098  0.7639672203857444  1.0000
  H   H29       1.0  0.4501276013545591  0.3605331657792448  0.6629813734233139  1.0000
  H   H30       1.0  0.549878662549517  0.6394629983691973  0.3370237354756682  1.0000
  H   H31       1.0  0.18812380860987296  0.9108043936103347  0.39928284057499747  1.0000
  H   H32       1.0  0.8118781048029645  0.08919169752980591  0.6007015400493215  1.0000
  H   H33       1.0  0.971197745218646  0.8676913012878272  0.0855708189605267  1.0000
  H   H34       1.0  0.028786865421828574  0.13231174900159462  0.9144167499616742  1.0000
  H   H35       1.0  0.8126385365725568  0.5306695702618853  0.5331868516807176  1.0000
  H   H36       1.0  0.18737491225633102  0.469369100273049  0.4668152655972903  1.0000
  H   H37       1.0  0.7207673322113877  0.43379946125925534  0.6462821422334883  1.0000
  H   H38       1.0  0.2792336563316977  0.5662391867390967  0.3537095511813249  1.0000
  H   H39       1.0  0.9487908797531118  0.36722291531834383  0.5812342227231682  1.0000
  H   H40       1.0  0.05121107569827641  0.6328048467584182  0.41875605239133046  1.0000
  H   H41       1.0  0.03119887911505961  0.542381117052365  0.6676134279211041  1.0000
  H   H42       1.0  0.968824737649406  0.4576249303440393  0.3323961496314282  1.0000
  H   H43       1.0  0.8043215198022576  0.6032060856701662  0.7341294682554743  1.0000
  H   H44       1.0  0.19570394566327556  0.3968108194775226  0.2658751568486295  1.0000
  H   H45       1.0  0.856635090077297  0.4025132918704061  0.8520296635700788  1.0000
  H   H46       1.0  0.14336187490922458  0.5974986882909691  0.14796991408898919  1.0000
  C   C1        1.0  0.7167752123596356  0.37451408630351324  0.060852923773950386  1.0000
  C   C2        1.0  0.2832245686263801  0.6254820921060259  0.9391535790695186  1.0000
  C   C3        1.0  0.5632660814750707  0.9317574790756923  0.9979324097322787  1.0000
  C   C4        1.0  0.436753050374861  0.06823273534655531  0.002073258612654205  1.0000
  C   C5        1.0  0.5649508293619545  0.25270377385331955  0.384669875426752  1.0000
  C   C6        1.0  0.43503180098380756  0.7472825008847368  0.6153268740622976  1.0000
  C   C7        1.0  0.8352938469358546  0.12849356872097675  0.2569222442461835  1.0000
  C   C8        1.0  0.1646895689222915  0.8715055627780902  0.7430746709219348  1.0000
  C   C9        1.0  0.5953915897259493  0.3302300679020363  0.16354467003876036  1.0000
  C   C10       1.0  0.4046023731398805  0.6697680773559469  0.8364567920592876  1.0000
  C   C11       1.0  0.6943773011714639  0.2636276562253244  0.2738324807096006  1.0000
  C   C12       1.0  0.3056093210275321  0.7363665504642186  0.7261709137440702  1.0000
  C   C13       1.0  0.6958169497857865  0.8941560213784429  0.9011368601844651  1.0000
  C   C14       1.0  0.3041916719796019  0.10582924446521962  0.09886408543156477  1.0000
  C   C15       1.0  0.5623935586308944  0.3189236205884712  0.4831828740747141  1.0000
  C   C16       1.0  0.4376058380632129  0.6810655916287944  0.5168121887034474  1.0000
  C   C17       1.0  0.5582276825871586  0.8324074010982089  0.09022777985224904  1.0000
  C   C18       1.0  0.44179891708368757  0.16758579323464323  0.9097839664750466  1.0000
  C   C19       1.0  0.8157481170536155  0.7661672528571516  0.901191722353893  1.0000
  C   C20       1.0  0.18425997311742748  0.23381901249137377  0.09881178232588887  1.0000
  C   C21       1.0  0.6827254706326539  0.7064300762501077  0.08461465400779387  1.0000
  C   C22       1.0  0.317294681433374  0.2935601632320442  0.9153979579727716  1.0000
  C   C23       1.0  0.8410394881988308  0.05233043297902641  0.16482690520760462  1.0000
  C   C24       1.0  0.15893926617853524  0.9476677111048419  0.835168742209049  1.0000
  C   C25       1.0  0.3391620649383355  0.16193944103378038  0.49768753340773486  1.0000
  C   C26       1.0  0.6608183407496495  0.838060684101258  0.502309503738111  1.0000
  C   C27       1.0  0.9626597167146257  0.0758406974038195  0.34050194062978534  1.0000
  C   C28       1.0  0.037330352188256054  0.9241554371066841  0.6594895291687024  1.0000
  C   C29       1.0  0.4519629268694272  0.17368147354891053  0.39334568677903553  1.0000
  C   C30       1.0  0.5480148333358555  0.8263156970289601  0.6066536696904163  1.0000
  C   C31       1.0  0.33799693024175764  0.2281038303552877  0.5959071981961727  1.0000
  C   C32       1.0  0.6619860904453602  0.771893321325088  0.4040891053940354  1.0000
  C   C33       1.0  0.09189911433181647  0.8740064516813678  0.2423395552641806  1.0000
  C   C34       1.0  0.9080894348540764  0.12599361957803273  0.7576462966867082  1.0000
  C   C35       1.0  0.4503750327769038  0.30677962739944326  0.5879572631876967  1.0000
  C   C36       1.0  0.549618637637856  0.6932135621202208  0.41204129747426066  1.0000
  C   C37       1.0  0.08968235595531822  0.9498547792683072  0.3338174644799778  1.0000
  C   C38       1.0  0.9103136963647387  0.050145302789907496  0.6661739371620428  1.0000
  C   C39       1.0  0.9682257993134084  0.9259760657350995  0.1576749010693987  1.0000
  C   C40       1.0  0.0317612241060559  0.0740240315231659  0.8423172189980406  1.0000
  C   C41       1.0  0.8449465817361312  0.45785084893490346  0.6104209499101003  1.0000
  C   C42       1.0  0.15505539653948822  0.5421818961115294  0.389579272908314  1.0000
  C   C43       1.0  0.9110581236678356  0.5130924620403833  0.7046983105698884  1.0000
  C   C44       1.0  0.08895831450699618  0.48692149259949263  0.2953073854518776  1.0000
  N   N1        1.0  0.8122201195690834  0.6728130194659485  0.9922862105683731  1.0000
  N   N2        1.0  0.18779259837938148  0.32717423670168705  0.007719442646347801  1.0000
  O   O1        1.0  0.8296055542021391  0.4231241299006712  0.09648724174421365  1.0000
  O   O2        1.0  0.17040434491717335  0.5768690858530123  0.9035240772347563  1.0000
  O   O3        1.0  0.698775339751819  0.3653302205743715  0.9549560084085299  1.0000
  O   O4        1.0  0.30123330766745937  0.6346698704047498  0.04504229396276567  1.0000
  O   O5        1.0  0.9656106732580124  0.4181631217967663  0.8031751299942724  1.0000
  O   O6        1.0  0.034388839320932604  0.5818458917177836  0.1968254756761212  1.0000
