data_image0
_chemical_formula_structural       Cu16H48C32I8N24O16
_chemical_formula_sum              "Cu16 H48 C32 I8 N24 O16"
_cell_length_a       15.284943296335452
_cell_length_b       15.285169427565712
_cell_length_c       15.285234740729631
_cell_angle_alpha    68.42185516758163
_cell_angle_beta     74.66498565748789
_cell_angle_gamma    111.57759160088084

_space_group_name_H-M_alt    "P 1"
_space_group_IT_number       1

loop_
  _space_group_symop_operation_xyz
  'x, y, z'

loop_
  _atom_site_type_symbol
  _atom_site_label
  _atom_site_symmetry_multiplicity
  _atom_site_fract_x
  _atom_site_fract_y
  _atom_site_fract_z
  _atom_site_occupancy
  Cu  Cu1       1.0  0.750077757180904  0.8125737758910391  0.08522447057623579  1.0000
  Cu  Cu2       1.0  0.43750988540890035  0.3353091472564601  0.749917456519874  1.0000
  Cu  Cu3       1.0  0.4147788852013078  0.16469830949374395  0.8978166376801082  1.0000
  Cu  Cu4       1.0  0.6021786603413447  0.68740391734255  0.0625134403614139  1.0000
  Cu  Cu5       1.0  0.24992240152646888  0.18742319875111965  0.9147676213300996  1.0000
  Cu  Cu6       1.0  0.5625036525886458  0.6646924628438312  0.2500842447143582  1.0000
  Cu  Cu7       1.0  0.5852229386052769  0.8353026685331882  0.1021978544872083  1.0000
  Cu  Cu8       1.0  0.3978091023599502  0.31259094676831  0.9374932541988624  1.0000
  Cu  Cu9       1.0  0.7674584935564894  0.6757803986343163  0.29672158545736926  1.0000
  Cu  Cu10      1.0  0.5916849936685649  0.5641813543747033  0.7325437374552164  1.0000
  Cu  Cu11      1.0  0.20328242962428783  0.9358266388309815  0.9725022350412472  1.0000
  Cu  Cu12      1.0  0.5275047887844835  0.824225652328856  0.9083209248176087  1.0000
  Cu  Cu13      1.0  0.2325425623426155  0.3242174670318575  0.7032738331157516  1.0000
  Cu  Cu14      1.0  0.40832257081760287  0.43582301892228503  0.26745221229730726  1.0000
  Cu  Cu15      1.0  0.7967182716129244  0.06417721100368107  0.027497170519367696  1.0000
  Cu  Cu16      1.0  0.4724924123250531  0.17577548754975678  0.09168014698666122  1.0000
  H   H1        1.0  0.9561378124162658  0.9632571309147977  0.8730782695177766  1.0000
  H   H2        1.0  0.4928828306489308  0.32921744842391115  0.5438625389461932  1.0000
  H   H3        1.0  0.6269381947977806  0.170800337515061  0.8363257974264398  1.0000
  H   H4        1.0  0.6636670217405012  0.5367377528657754  0.007128568657250784  1.0000
  H   H5        1.0  0.04386374796700921  0.03674520529355621  0.12691733082822756  1.0000
  H   H6        1.0  0.5071206762189532  0.670786831358768  0.45613463479782707  1.0000
  H   H7        1.0  0.37306437187296365  0.8292069628297085  0.16367441072381428  1.0000
  H   H8        1.0  0.3363298118912681  0.4632638129204452  0.99287244469491  1.0000
  H   H9        1.0  0.09204752031515523  0.035962604596335136  0.8469147295309439  1.0000
  H   H10       1.0  0.5560855665497825  0.438965172439559  0.4079557091566385  1.0000
  H   H11       1.0  0.6531002225022815  0.0610501790525433  0.8828694368374527  1.0000
  H   H12       1.0  0.6171253701271837  0.46403525135395524  0.9439237483113909  1.0000
  H   H13       1.0  0.907952501653817  0.9640389870175738  0.15308057534623723  1.0000
  H   H14       1.0  0.4439165514580949  0.5610393040378127  0.5920420015873232  1.0000
  H   H15       1.0  0.34690189550559575  0.9389542974248285  0.11712827390650915  1.0000
  H   H16       1.0  0.38287172202061737  0.5359665721230229  0.05607771050120649  1.0000
  H   H17       1.0  0.09403938647897549  0.8297323623192198  0.21142417828693266  1.0000
  H   H18       1.0  0.764304302432038  0.8054618992341676  0.40596257654438245  1.0000
  H   H19       1.0  0.28858351296938173  0.6945520684522393  0.041156506855671134  1.0000
  H   H20       1.0  0.4588395067459103  0.6702609535646857  0.7357045740156777  1.0000
  H   H21       1.0  0.9059559642918059  0.17026059212580658  0.7885708876713833  1.0000
  H   H22       1.0  0.23570066166505652  0.19453987536795134  0.5940324537142769  1.0000
  H   H23       1.0  0.7114184656192252  0.30545304804893914  0.9588486611176208  1.0000
  H   H24       1.0  0.5411563864207167  0.32973411936207947  0.2642961374511045  1.0000
  H   H25       1.0  0.9604973679981157  0.7156195922866218  0.30153559882125325  1.0000
  H   H26       1.0  0.7448801479612969  0.7620359751779234  0.5395027960795742  1.0000
  H   H27       1.0  0.19846931187000655  0.7379804738025157  0.017150906635009643  1.0000
  H   H28       1.0  0.4828413326245666  0.784378999101655  0.7551274676086377  1.0000
  H   H29       1.0  0.03949984820618366  0.28437681266849774  0.6984602697267018  1.0000
  H   H30       1.0  0.25512884584343  0.2379650696011096  0.46049216800429343  1.0000
  H   H31       1.0  0.8015308291957336  0.26202201552595705  0.9828523009319311  1.0000
  H   H32       1.0  0.5171514026623782  0.215616091571988  0.2448718821121218  1.0000
  H   H33       1.0  0.07828435247220263  0.9448174226543173  0.7557639882284445  1.0000
  H   H34       1.0  0.6334653190976313  0.33404255842969377  0.42172116599572  1.0000
  H   H35       1.0  0.7442498255574534  0.16596225521695385  0.7005722650439378  1.0000
  H   H36       1.0  0.7994207946664034  0.5551726625885536  0.8665380622685176  1.0000
  H   H37       1.0  0.92171393838877  0.05518163795134259  0.2442348816383556  1.0000
  H   H38       1.0  0.3665318108278369  0.6659521562760772  0.5782840884066474  1.0000
  H   H39       1.0  0.2557517573747319  0.8340329504329063  0.299430666002337  1.0000
  H   H40       1.0  0.20057377814340777  0.44482505525779453  0.13346324785860011  1.0000
  H   H41       1.0  0.07033760597317962  0.6501248457997306  0.2632744159078938  1.0000
  H   H42       1.0  0.9202131157280816  0.8336143540295492  0.42965992887734206  1.0000
  H   H43       1.0  0.23673015397660888  0.6663969463336555  0.913404830187609  1.0000
  H   H44       1.0  0.5865924180859707  0.8498636120292672  0.5798005532582591  1.0000
  H   H45       1.0  0.9296585582573728  0.3498665296571274  0.736727450167308  1.0000
  H   H46       1.0  0.07979450176453179  0.16638293228351833  0.57033628135445  1.0000
  H   H47       1.0  0.7632704762105362  0.333605235038945  0.0866004261169166  1.0000
  H   H48       1.0  0.4134034750806562  0.15013146089749088  0.420200158208523  1.0000
  C   C1        1.0  0.022232348011016125  0.9541512230007072  0.8814386521750917  1.0000
  C   C2        1.0  0.5680835884663225  0.40367411104619316  0.4777679625082526  1.0000
  C   C3        1.0  0.618576915077  0.09633808134661576  0.8355820428530336  1.0000
  C   C4        1.0  0.6644120828628601  0.5458425354376145  0.9319254739808824  1.0000
  C   C5        1.0  0.9777694302957443  0.0458497460108944  0.11855617415424997  1.0000
  C   C6        1.0  0.43191889701932956  0.5963299395235637  0.5222298066878251  1.0000
  C   C7        1.0  0.38142449320510974  0.9036640933354364  0.1644186374284969  1.0000
  C   C8        1.0  0.33558344295998666  0.4541577201075312  0.06807684717959708  1.0000
  C   C9        1.0  0.02678517269495729  0.7590249054586379  0.2215782712575559  1.0000
  C   C10       1.0  0.7677618892781692  0.748365939391604  0.4732166556138322  1.0000
  C   C11       1.0  0.2784265409603038  0.7516475671823244  0.980601787995887  1.0000
  C   C12       1.0  0.5193925870572612  0.7409715108865171  0.73224821550545  1.0000
  C   C13       1.0  0.9732100691140745  0.24096873258476154  0.7784171817090878  1.0000
  C   C14       1.0  0.2322454571505118  0.2516350443913564  0.5267784000095403  1.0000
  C   C15       1.0  0.7215728093285847  0.2483541272865962  0.019403618300252348  1.0000
  C   C16       1.0  0.48060144080983497  0.2590248682409211  0.26775336151749213  1.0000
  C   C17       1.0  0.9890802223035351  0.8873733497817894  0.9960201466158268  1.0000
  C   C18       1.0  0.6017110792018981  0.48510112017185486  0.5109228347438445  1.0000
  C   C19       1.0  0.5039933076553992  0.014919506296799003  0.8833884916905034  1.0000
  C   C20       1.0  0.6166042624133397  0.6126201145850061  0.89831069106782  1.0000
  C   C21       1.0  0.010919799665437272  0.11262824183211956  0.003975158261354695  1.0000
  C   C22       1.0  0.39829790205493504  0.5149038797678428  0.48907142019203315  1.0000
  C   C23       1.0  0.49601086593283134  0.9850909868672986  0.11661207358896754  1.0000
  C   C24       1.0  0.38339086802108097  0.3873797435303601  0.10169272945725535  1.0000
  C   C25       1.0  0.9914325179363601  0.8015986056374729  0.1422012099935798  1.0000
  C   C26       1.0  0.6898375726512923  0.6336349898106518  0.5085680762692346  1.0000
  C   C27       1.0  0.3578101911603683  0.8663793379681621  0.9437948871997502  1.0000
  C   C28       1.0  0.5562001352870283  0.698394850480092  0.8101728162060764  1.0000
  C   C29       1.0  0.008566236682241948  0.1983985439120914  0.8577949540232054  1.0000
  C   C30       1.0  0.31016803012150257  0.3663674181247245  0.49142983519576683  1.0000
  C   C31       1.0  0.6421955333900584  0.13362794462972258  0.056206682696526275  1.0000
  C   C32       1.0  0.4437944375227829  0.301602867366256  0.18982849392103412  1.0000
  I   I1        1.0  0.7471915736340191  0.9249928588443622  0.9114057474790441  1.0000
  I   I2        1.0  0.3222051528496977  0.15859797833952177  0.7528078463144039  1.0000
  I   I3        1.0  0.5886014717217377  0.3414104992230661  0.8364040821296539  1.0000
  I   I4        1.0  0.6635968779320365  0.5749971019938728  0.17781340137531726  1.0000
  I   I5        1.0  0.2528143561579981  0.07501225500666918  0.08859267110678092  1.0000
  I   I6        1.0  0.677803034949413  0.8414022497926722  0.2471928516091493  1.0000
  I   I7        1.0  0.41139859829393527  0.658590321643345  0.1636049761811974  1.0000
  I   I8        1.0  0.33639669872532346  0.42499723302899634  0.8221915906456229  1.0000
  N   N1        1.0  0.8890464033174511  0.8284425279365452  0.0730069259121889  1.0000
  N   N2        1.0  0.5606089943212212  0.4620570902171579  0.6109543562879836  1.0000
  N   N3        1.0  0.42700768288268165  0.03795229329719533  0.9014484947883117  1.0000
  N   N4        1.0  0.5985464794847104  0.671545897644485  0.9393993195094975  1.0000
  N   N5        1.0  0.11095537498930229  0.17155844107506363  0.9269879004171527  1.0000
  N   N6        1.0  0.4393940865667147  0.5379419918504098  0.38904931889582867  1.0000
  N   N7        1.0  0.5729955754701948  0.9620485533968975  0.09855485504755981  1.0000
  N   N8        1.0  0.4014447427517139  0.32845005153492923  0.06060448933003925  1.0000
  N   N9        1.0  0.8906437545266783  0.7732705364746266  0.16576899165008263  1.0000
  N   N10       1.0  0.6173770749653825  0.5564171034026159  0.609356268532153  1.0000
  N   N11       1.0  0.3342376278329058  0.9436007422026763  0.9390401490829842  1.0000
  N   N12       1.0  0.5609526644409043  0.7267216767182417  0.8826389939143907  1.0000
  N   N13       1.0  0.10935080546725132  0.22672162311083358  0.8342282730374176  1.0000
  N   N14       1.0  0.3826336068079216  0.4435856272599921  0.39063982348929455  1.0000
  N   N15       1.0  0.6657612334685651  0.05640601693288257  0.06096487662138364  1.0000
  N   N16       1.0  0.43903829927948823  0.27327401477041485  0.11736436946470248  1.0000
  N   N17       1.0  0.05570080853163268  0.8739740043107247  0.036491277984914826  1.0000
  N   N18       1.0  0.6817295091554882  0.5921927674443664  0.44430166100794816  1.0000
  N   N19       1.0  0.4635153517388559  0.9078127153689408  0.9104604181329277  1.0000
  N   N20       1.0  0.5895379620225542  0.626027707776295  0.8182716908674548  1.0000
  N   N21       1.0  0.9442980271380604  0.1260216383030793  0.9635056568402472  1.0000
  N   N22       1.0  0.3182717900308774  0.4078053341252783  0.5556977381361036  1.0000
  N   N23       1.0  0.5364823789506445  0.09218498473052243  0.0895422537401984  1.0000
  N   N24       1.0  0.41045883101666897  0.37397223312243005  0.1817281030076144  1.0000
  O   O1        1.0  0.04828332524814243  0.8969824174406963  0.8319543514677078  1.0000
  O   O2        1.0  0.6513045463275874  0.38023828485547284  0.4517158007357122  1.0000
  O   O3        1.0  0.6680580735315828  0.11977329339920562  0.7289284140345628  1.0000
  O   O4        1.0  0.7710648109494399  0.6030099209436129  0.8487121205954506  1.0000
  O   O5        1.0  0.9517159869950618  0.10301687237788569  0.16804392294704218  1.0000
  O   O6        1.0  0.34869923428509236  0.6197662744052508  0.5482782833582505  1.0000
  O   O7        1.0  0.3319412794381692  0.8802323780176522  0.27107274800308534  1.0000
  O   O8        1.0  0.22892977454226582  0.3969885984528432  0.15129156682545633  1.0000
  O   O9        1.0  0.05952071186523258  0.6871008792110445  0.20366664366250822  1.0000
  O   O10       1.0  0.8724214727559884  0.7631892267550883  0.4404780804543333  1.0000
  O   O11       1.0  0.2963419168232736  0.7368221101807823  0.8907679365044668  1.0000
  O   O12       1.0  0.6092293916099435  0.8128907470138954  0.6275900320662157  1.0000
  O   O13       1.0  0.9404712983331791  0.31288713116921935  0.7963375425605148  1.0000
  O   O14       1.0  0.12758515394590833  0.2368126306303822  0.55951332315432  1.0000
  O   O15       1.0  0.7036602670069313  0.26318083757354305  0.10923408015837315  1.0000
  O   O16       1.0  0.3907646083465012  0.18710480877614805  0.3724127027734312  1.0000
