data_image0
_chemical_formula_structural       Fe8H64C96N32
_chemical_formula_sum              "Fe8 H64 C96 N32"
_cell_length_a       13.53818431626207
_cell_length_b       13.124435238455561
_cell_length_c       26.96921129250438
_cell_angle_alpha    89.99939244621244
_cell_angle_beta     102.25582291387119
_cell_angle_gamma    90.00083141736516

_space_group_name_H-M_alt    "P 1"
_space_group_IT_number       1

loop_
  _space_group_symop_operation_xyz
  'x, y, z'

loop_
  _atom_site_type_symbol
  _atom_site_label
  _atom_site_symmetry_multiplicity
  _atom_site_fract_x
  _atom_site_fract_y
  _atom_site_fract_z
  _atom_site_occupancy
  Fe  Fe1       1.0  0.47915837282486257  0.36671228435152164  0.2303288571401936  1.0000
  Fe  Fe2       1.0  0.5208365478269529  0.8667176599543326  0.2696702279852801  1.0000
  Fe  Fe3       1.0  0.5208419011214077  0.6332924871106086  0.7696730479130807  1.0000
  Fe  Fe4       1.0  0.47916823357346777  0.1332787302471061  0.7303299191098134  1.0000
  Fe  Fe5       1.0  0.4897453381294241  0.6133306579218499  0.2584215425486036  1.0000
  Fe  Fe6       1.0  0.5102507874471769  0.11334376669535119  0.24157596075627202  1.0000
  Fe  Fe7       1.0  0.5102533871909997  0.3866748755016758  0.7415772357161146  1.0000
  Fe  Fe8       1.0  0.48974867980005854  0.8866465279941951  0.7584217819848503  1.0000
  H   H1        1.0  0.2570661395390488  0.6402656068213588  0.2713732928267518  1.0000
  H   H2        1.0  0.7429234965161202  0.14028846953819854  0.22862043803544913  1.0000
  H   H3        1.0  0.742936355916541  0.3597460221337699  0.7286251342825949  1.0000
  H   H4        1.0  0.2570752241568428  0.859711730326623  0.7713779689611115  1.0000
  H   H5        1.0  0.22865406067762004  0.339914960313493  0.2027932059902469  1.0000
  H   H6        1.0  0.771339594424525  0.8399309641501278  0.2971929032725811  1.0000
  H   H7        1.0  0.7713379310714787  0.6600928588194038  0.7972104368973731  1.0000
  H   H8        1.0  0.22865908007594982  0.16006237831804532  0.7028017909581054  1.0000
  H   H9        1.0  0.09168949800649528  0.6310982067047632  0.2798024789314297  1.0000
  H   H10       1.0  0.9083242436055843  0.13114498662152843  0.22019676038217284  1.0000
  H   H11       1.0  0.9083093288597369  0.3689172318160487  0.7202044674275854  1.0000
  H   H12       1.0  0.09168126601696973  0.8688567371721091  0.7798012373185372  1.0000
  H   H13       1.0  0.9117617981664664  0.6327476335771111  0.2804935899146983  1.0000
  H   H14       1.0  0.0882535780372322  0.132785605998663  0.21951396811109447  1.0000
  H   H15       1.0  0.0882332585497352  0.3672594235994497  0.7195137076038378  1.0000
  H   H16       1.0  0.9117519823309976  0.8672168796871064  0.7804881136443598  1.0000
  H   H17       1.0  0.8710159373222127  0.35450853364027074  0.1933408515783199  1.0000
  H   H18       1.0  0.1289735799415936  0.8545378851894726  0.3066614425550185  1.0000
  H   H19       1.0  0.1289866595851095  0.6454985235987397  0.8066657436515713  1.0000
  H   H20       1.0  0.8710304594577281  0.1454623146827245  0.6933397400843901  1.0000
  H   H21       1.0  0.05129395627236021  0.3526724338774017  0.1927145740161578  1.0000
  H   H22       1.0  0.9486916010173659  0.8527090654651347  0.307274711903844  1.0000
  H   H23       1.0  0.9487109221006876  0.6473399569258335  0.8072933698843556  1.0000
  H   H24       1.0  0.051310129279087804  0.1472918963679888  0.692722894386911  1.0000
  H   H25       1.0  0.7045892344585029  0.3432830896901181  0.20559844699550922  1.0000
  H   H26       1.0  0.295403989982873  0.8433059818145311  0.2944102197078706  1.0000
  H   H27       1.0  0.29541406755747357  0.6567216817862586  0.7944041424646642  1.0000
  H   H28       1.0  0.7046023954464291  0.1566972657514469  0.7055975094959237  1.0000
  H   H29       1.0  0.7380603246373455  0.6440109355527852  0.273852603529015  1.0000
  H   H30       1.0  0.2619497960749015  0.14402841537497582  0.2261454550511601  1.0000
  H   H31       1.0  0.2619353772410093  0.3559968836650071  0.7261458616024967  1.0000
  H   H32       1.0  0.7380518418963788  0.8559618794150482  0.7738447257023324  1.0000
  H   H33       1.0  0.46915308848963383  0.5656821767020758  0.3770252124591664  1.0000
  H   H34       1.0  0.5308197187394866  0.06569062320213702  0.12296825876298809  1.0000
  H   H35       1.0  0.5308463695914369  0.4343172612462993  0.622971787709723  1.0000
  H   H36       1.0  0.4691578377350538  0.9343095765340765  0.8770279563300818  1.0000
  H   H37       1.0  0.528974524543095  0.8896339235888887  0.39034779849602336  1.0000
  H   H38       1.0  0.4710161496354388  0.38964027906990145  0.10964999126809971  1.0000
  H   H39       1.0  0.4710393272379819  0.1103639905427585  0.6096532879835124  1.0000
  H   H40       1.0  0.5289825987291366  0.610362206582792  0.8903506433912938  1.0000
  H   H41       1.0  0.5433219845731259  0.5732461158300239  0.476367284011026  1.0000
  H   H42       1.0  0.4566638075476845  0.0732519063793617  0.023630460811453684  1.0000
  H   H43       1.0  0.456680473881093  0.4267502744071763  0.523628172903301  1.0000
  H   H44       1.0  0.5433281103472112  0.9267482934441206  0.9763672416446951  1.0000
  H   H45       1.0  0.535686076202758  0.5786403331319435  0.5662144510931952  1.0000
  H   H46       1.0  0.4643134759473284  0.0786538011109243  0.9337839835927896  1.0000
  H   H47       1.0  0.46431032605757133  0.421347675763748  0.433779637022532  1.0000
  H   H48       1.0  0.5356890148211947  0.9213463987851184  0.0662140722594415  1.0000
  H   H49       1.0  0.41570664062157187  0.8840234889632443  0.5468557251821409  1.0000
  H   H50       1.0  0.584284118847684  0.38404511695183174  0.9531473256973513  1.0000
  H   H51       1.0  0.5842837838970001  0.11596147208357623  0.45314330584842116  1.0000
  H   H52       1.0  0.4157222111983927  0.6159535590384096  0.04685594818077729  1.0000
  H   H53       1.0  0.4230270456928267  0.8782902091731869  0.45682978810873454  1.0000
  H   H54       1.0  0.5769506821254922  0.37830187450352076  0.04317079603389829  1.0000
  H   H55       1.0  0.576963365056699  0.12170541901168971  0.5431681290690022  1.0000
  H   H56       1.0  0.4230473287814576  0.6216937536901311  0.9568312454669794  1.0000
  H   H57       1.0  0.4335911437369689  0.8998366565812858  0.6338855256481821  1.0000
  H   H58       1.0  0.566371757479402  0.3998668342950396  0.8661067746013984  1.0000
  H   H59       1.0  0.5663803518665061  0.1001452566294248  0.3661089493864154  1.0000
  H   H60       1.0  0.43362924925722984  0.6001364133172302  0.13389335234775504  1.0000
  H   H61       1.0  0.5280574479370373  0.5838105860437963  0.6520299216332859  1.0000
  H   H62       1.0  0.4719830341305169  0.08381161186537868  0.8479764343494623  1.0000
  H   H63       1.0  0.47197230006177193  0.4161880901012154  0.3479746651616367  1.0000
  H   H64       1.0  0.5280179864494414  0.9161923976720561  0.1520248064317968  1.0000
  C   C1        1.0  0.2668588150143947  0.5661118109708383  0.255207019227349  1.0000
  C   C2        1.0  0.73313589025058  0.0661303598333092  0.2447864929374788  1.0000
  C   C3        1.0  0.7331422102427325  0.4339021037505902  0.7447945928137898  1.0000
  C   C4        1.0  0.2668650610780645  0.9338645065154766  0.7552091786929154  1.0000
  C   C5        1.0  0.19481127145876806  0.4901059385207063  0.23690292536330304  1.0000
  C   C6        1.0  0.8051859490660933  0.9901308163063478  0.2630909639910541  1.0000
  C   C7        1.0  0.8051897630387971  0.5099102620050999  0.7630994292293495  1.0000
  C   C8        1.0  0.19481652783929357  0.0098655739143396  0.7369059780345992  1.0000
  C   C9        1.0  0.25212398841279793  0.41345486655151115  0.2197346142032259  1.0000
  C   C10       1.0  0.7478699127770271  0.9134655768932448  0.28025486292094126  1.0000
  C   C11       1.0  0.7478717826970609  0.586559048104732  0.7802694200846787  1.0000
  C   C12       1.0  0.2521333061492612  0.086530051406875  0.719741043554869  1.0000
  C   C13       1.0  0.08681468142592048  0.491318165812153  0.236515042981523  1.0000
  C   C14       1.0  0.9131840804817133  0.9913522175391806  0.2634801123588772  1.0000
  C   C15       1.0  0.9131878970747991  0.5086957488813013  0.7634900671246144  1.0000
  C   C16       1.0  0.0868199127847333  0.0086472204367567  0.7365173575036152  1.0000
  C   C17       1.0  0.0438944672590154  0.5698962046036585  0.2605879837734193  1.0000
  C   C18       1.0  0.9561169947659495  0.06993638808190643  0.23941354856354743  1.0000
  C   C19       1.0  0.9561058343986703  0.43011390039653463  0.7394161489371669  1.0000
  C   C20       1.0  0.04389003580074301  0.9300638118375634  0.7605853482601219  1.0000
  C   C21       1.0  0.941533334301532  0.5708749293449884  0.2609708808551616  1.0000
  C   C22       1.0  0.05847590056819742  0.070921176362539  0.23903264074228764  1.0000
  C   C23       1.0  0.058464732048065585  0.42913441367497285  0.7390356159548119  1.0000
  C   C24       1.0  0.9415296367558738  0.9290843570940623  0.7609675846184984  1.0000
  C   C25       1.0  0.8762666778746823  0.4933902447168919  0.23735691110241672  1.0000
  C   C26       1.0  0.123730719164783  0.9934235549024989  0.2626477333853359  1.0000
  C   C27       1.0  0.12373364682716212  0.5066168125124619  0.7626490780028448  1.0000
  C   C28       1.0  0.8762710342005845  0.0065781688475326  0.7373517292931879  1.0000
  C   C29       1.0  0.9189766408879125  0.41534632774875757  0.21282687467542163  1.0000
  C   C30       1.0  0.0810113811236661  0.9153807555197491  0.2871734789021971  1.0000
  C   C31       1.0  0.0810244489235572  0.5846637772271279  0.7871799352622375  1.0000
  C   C32       1.0  0.9189896348434986  0.08462325402181389  0.7128273906012339  1.0000
  C   C33       1.0  0.021478898586693208  0.41429750581011854  0.2124407951689165  1.0000
  C   C34       1.0  0.978515096725353  0.9143296776672473  0.2875553618620046  1.0000
  C   C35       1.0  0.9785251962255687  0.585711837263112  0.787564842787873  1.0000
  C   C36       1.0  0.021488163745779304  0.08567052222099389  0.7124438861059872  1.0000
  C   C37       1.0  0.6967719365617598  0.4168639113758773  0.222783952921084  1.0000
  C   C38       1.0  0.3032252261455142  0.9168766349036375  0.2772214186366924  1.0000
  C   C39       1.0  0.3032306049920521  0.583143145912679  0.7772181869748422  1.0000
  C   C40       1.0  0.6967773384078912  0.08312051717615529  0.7227825776663437  1.0000
  C   C41       1.0  0.769153227675055  0.4936789876846178  0.2389678904899384  1.0000
  C   C42       1.0  0.23085177320595565  0.9937016934790605  0.2610408772932473  1.0000
  C   C43       1.0  0.23084706935993177  0.5063295934446117  0.7610358709455838  1.0000
  C   C44       1.0  0.7691515102895325  0.006292410888157499  0.7389602270749479  1.0000
  C   C45       1.0  0.713927345928326  0.569754028568788  0.2580454027023719  1.0000
  C   C46       1.0  0.2860818556993152  0.0697661697001664  0.2419566379098015  1.0000
  C   C47       1.0  0.2860706466066816  0.4302537906421405  0.7419551536650817  1.0000
  C   C48       1.0  0.7139228610675376  0.9302218392460446  0.7580383113108696  1.0000
  C   C49       1.0  0.48638810445428504  0.6452667359046632  0.3718864066941592  1.0000
  C   C50       1.0  0.5135895257547887  0.14527634161159142  0.12810790993162874  1.0000
  C   C51       1.0  0.5136121140790451  0.35472889235644095  0.6281110430417343  1.0000
  C   C52       1.0  0.4863963452262752  0.8547238581751416  0.8718891662663849  1.0000
  C   C53       1.0  0.49460411377022245  0.7263807532146914  0.4066408452005561  1.0000
  C   C54       1.0  0.5053776403233954  0.22638949531750538  0.09335720322732749  1.0000
  C   C55       1.0  0.505398376958688  0.27361335118096264  0.593357210662731  1.0000
  C   C56       1.0  0.49461506108772824  0.7736068947980571  0.9066428051849799  1.0000
  C   C57       1.0  0.515465540794807  0.8108427584846113  0.3785249828516228  1.0000
  C   C58       1.0  0.4845211227698699  0.3108574256879422  0.1214757496755396  1.0000
  C   C59       1.0  0.48454000106777784  0.1891513459046479  0.6214756138077107  1.0000
  C   C60       1.0  0.5154753948994042  0.6891442979803841  0.8785276203610763  1.0000
  C   C61       1.0  0.48496162449465874  0.7258970213001561  0.4596032620173531  1.0000
  C   C62       1.0  0.5150254420712485  0.2259109001166237  0.04039756379800251  1.0000
  C   C63       1.0  0.5150393591185818  0.27409708308218944  0.54039500855923  1.0000
  C   C64       1.0  0.484966503495457  0.7740885377445321  0.9596023663265072  1.0000
  C   C65       1.0  0.5138516903118316  0.6413187584723447  0.4913937070396345  1.0000
  C   C66       1.0  0.4861395218051073  0.1413268364195162  0.008604260651473789  1.0000
  C   C67       1.0  0.4861477539061028  0.358676869800675  0.5086021793026703  1.0000
  C   C68       1.0  0.5138554195318505  0.8586710776096923  0.9913937549378957  1.0000
  C   C69       1.0  0.5096056790195223  0.6446546798981458  0.5424510424313098  1.0000
  C   C70       1.0  0.4903917353869716  0.1446672306358749  0.9575490674364815  1.0000
  C   C71       1.0  0.4903945348762591  0.35533713867934585  0.4575460360336621  1.0000
  C   C72       1.0  0.5096092805653426  0.8553344930930468  0.04245180207109908  1.0000
  C   C73       1.0  0.4762037185701615  0.7322686310509499  0.5641962639885705  1.0000
  C   C74       1.0  0.5237956135858752  0.2322859625082003  0.9358054628673713  1.0000
  C   C75       1.0  0.5237927390238754  0.26771633004500484  0.4358022794666426  1.0000
  C   C76       1.0  0.47620916322155443  0.7677134754475575  0.06419431294436607  1.0000
  C   C77       1.0  0.4443926687868115  0.8155576808079846  0.5318348466027629  1.0000
  C   C78       1.0  0.5555979520129101  0.3155770329116336  0.9681681595316931  1.0000
  C   C79       1.0  0.555603830337212  0.18442956606345007  0.4681670383487814  1.0000
  C   C80       1.0  0.44440459410912336  0.6844231669348633  0.031834351654502796  1.0000
  C   C81       1.0  0.4488271144741062  0.8125532024792362  0.4808756355124473  1.0000
  C   C82       1.0  0.5511572990987049  0.31256503352281567  0.01912448469342109  1.0000
  C   C83       1.0  0.5511663197273792  0.1874416637864655  0.5191225947957392  1.0000
  C   C84       1.0  0.4488391862463672  0.6874313566115832  0.9808762864080478  1.0000
  C   C85       1.0  0.4571812566417536  0.8233488234353884  0.6464828528342181  1.0000
  C   C86       1.0  0.5428025796230926  0.3233690370435269  0.853512737507856  1.0000
  C   C87       1.0  0.5428053793300904  0.17663613759673077  0.3535150442293542  1.0000
  C   C88       1.0  0.45719766660185  0.6766288770054487  0.1464869398908704  1.0000
  C   C89       1.0  0.47785069529776797  0.7383498204348343  0.6184361494103925  1.0000
  C   C90       1.0  0.5221517255267545  0.23836834416714942  0.8815647546895207  1.0000
  C   C91       1.0  0.5221540583664749  0.2616374265408012  0.3815617700342955  1.0000
  C   C92       1.0  0.47785304668273915  0.7616333796053781  0.11843464984023909  1.0000
  C   C93       1.0  0.5056381194300101  0.6623592869258063  0.6556502757393403  1.0000
  C   C94       1.0  0.49437992417372095  0.16236681383363558  0.844351141008957  1.0000
  C   C95       1.0  0.4943749395498288  0.33763329367145184  0.34434776224495783  1.0000
  C   C96       1.0  0.5056210733076156  0.8376318621616079  0.1556482433928252  1.0000
  N   N1        1.0  0.4722126951425026  0.7993717248133763  0.6961394850175893  1.0000
  N   N2        1.0  0.5277761112823924  0.2993897864513785  0.8038559976858366  1.0000
  N   N3        1.0  0.5277784806968313  0.20062390336783414  0.30385925299807326  1.0000
  N   N4        1.0  0.47221960438977817  0.7006111753160977  0.1961435812915937  1.0000
  N   N5        1.0  0.5020239906552818  0.6998163562048774  0.7017104344637417  1.0000
  N   N6        1.0  0.4979869534917043  0.19982420616444335  0.7982878359807941  1.0000
  N   N7        1.0  0.49798150511899314  0.30018384372605317  0.2982864494062412  1.0000
  N   N8        1.0  0.5020110159248716  0.8001752317541033  0.2017108640127034  1.0000
  N   N9        1.0  0.5004527764040461  0.6793686219727134  0.3266251057341023  1.0000
  N   N10       1.0  0.4995245412523489  0.17938767643764209  0.1733690089441424  1.0000
  N   N11       1.0  0.499550474791981  0.32062395854831044  0.6733733996920463  1.0000
  N   N12       1.0  0.5004620948482384  0.8206170949707146  0.826628888083512  1.0000
  N   N13       1.0  0.6170622514682266  0.5399692380061296  0.2536526188452939  1.0000
  N   N14       1.0  0.3829419955011702  0.03997430146906569  0.24634646113632644  1.0000
  N   N15       1.0  0.38293495754064827  0.4600408670376197  0.7463456315687722  1.0000
  N   N16       1.0  0.617061970024146  0.9600152313435191  0.7536487810771462  1.0000
  N   N17       1.0  0.6066375228677074  0.4454480070568465  0.23179393368042162  1.0000
  N   N18       1.0  0.39335995135947854  0.9454538560451057  0.2682065076365348  1.0000
  N   N19       1.0  0.39336195834169974  0.5545613360590025  0.7682049228596596  1.0000
  N   N20       1.0  0.606641069170962  0.05454253411684821  0.7317947331585373  1.0000
  N   N21       1.0  0.519221567800912  0.7820146500585778  0.3309395657788556  1.0000
  N   N22       1.0  0.48076319087431335  0.2820281960089588  0.1690596296007385  1.0000
  N   N23       1.0  0.4807870021115761  0.21797640659472958  0.669061715292905  1.0000
  N   N24       1.0  0.519231049996499  0.7179765754040445  0.8309427630278846  1.0000
  N   N25       1.0  0.3500279866292645  0.4418681407831713  0.2273623252040267  1.0000
  N   N26       1.0  0.6499647859036557  0.941866937824557  0.272628006188576  1.0000
  N   N27       1.0  0.6499677567691791  0.5581404403350092  0.772639481426566  1.0000
  N   N28       1.0  0.35003768637903215  0.05812792852516682  0.7273685645620063  1.0000
  N   N29       1.0  0.35900674691615825  0.5365074591797452  0.249435752590621  1.0000
  N   N30       1.0  0.6409890805837435  0.03651235380232269  0.2505576522264477  1.0000
  N   N31       1.0  0.6409927573572107  0.4635018839154696  0.7505649603386076  1.0000
  N   N32       1.0  0.3590126450603037  0.9634825125345475  0.7494395827975282  1.0000
