data_image0
_chemical_formula_structural       Zn8H40C96O58
_chemical_formula_sum              "Zn8 H40 C96 O58"
_cell_length_a       23.786870198244376
_cell_length_b       23.788461347979087
_cell_length_c       23.78708852254124
_cell_angle_alpha    66.36328312720687
_cell_angle_beta     72.57701022199666
_cell_angle_gamma    107.43242831308307

_space_group_name_H-M_alt    "P 1"
_space_group_IT_number       1

loop_
  _space_group_symop_operation_xyz
  'x, y, z'

loop_
  _atom_site_type_symbol
  _atom_site_label
  _atom_site_symmetry_multiplicity
  _atom_site_fract_x
  _atom_site_fract_y
  _atom_site_fract_z
  _atom_site_occupancy
  Zn  Zn1       1.0  0.05672042831836437  0.9560290328978668  0.4872494620205147  1.0000
  Zn  Zn2       1.0  0.05671677087617872  0.10068054900331452  0.4560457896028965  1.0000
  Zn  Zn3       1.0  0.9432717033026703  0.9872404256314194  0.45602189831826967  1.0000
  Zn  Zn4       1.0  0.9432877366240862  0.9560388599251508  0.6006902823298221  1.0000
  Zn  Zn5       1.0  0.9432723035744319  0.5439592775136646  0.012752917540773137  1.0000
  Zn  Zn6       1.0  0.05673667414014013  0.5127525889295298  0.04396801626047167  1.0000
  Zn  Zn7       1.0  0.9432683593414951  0.3993089716895212  0.04397354237418238  1.0000
  Zn  Zn8       1.0  0.0567176891234952  0.5439637497247958  0.8993113942730345  1.0000
  H   H1        1.0  0.9235937982958405  0.7981642517521267  0.7782029218461873  1.0000
  H   H2        1.0  0.07634925992203997  0.7017728607788741  0.7217960909193906  1.0000
  H   H3        1.0  0.9236292396239278  0.7018420915152602  0.8745670754056653  1.0000
  H   H4        1.0  0.07644086346769562  0.7982205031526206  0.6254303571803278  1.0000
  H   H5        1.0  0.923568171788553  0.12543565832218212  0.29819559066721274  1.0000
  H   H6        1.0  0.07637068495098737  0.3745665160571505  0.20187508204523402  1.0000
  H   H7        1.0  0.9236410191064197  0.22180824876116387  0.20177331719283842  1.0000
  H   H8        1.0  0.07642213954261486  0.2781936485897489  0.29817221225192014  1.0000
  H   H9        1.0  0.9197571509231041  0.6475995458562451  0.11688270206154558  1.0000
  H   H10       1.0  0.08026542546254244  0.616883379552867  0.14762172042156152  1.0000
  H   H11       1.0  0.9270159225629658  0.8923223797371522  0.3431399564567385  1.0000
  H   H12       1.0  0.07294451747134909  0.8431274961867957  0.39237772438067264  1.0000
  H   H13       1.0  0.08025126547963876  0.46334379005583054  0.7721606821584646  1.0000
  H   H14       1.0  0.9197538089570044  0.2721260840878941  0.9633776434423923  1.0000
  H   H15       1.0  0.0729476522983035  0.22983289853621608  0.5346894035535925  1.0000
  H   H16       1.0  0.9270172203206998  0.034704289549637085  0.7298031963266285  1.0000
  H   H17       1.0  0.7354886798681692  0.4653022871642706  0.10765631153297751  1.0000
  H   H18       1.0  0.7354777340316473  0.27017204673003886  0.15685786576690944  1.0000
  H   H19       1.0  0.2644937751359606  0.22786471233272465  0.3523733905344884  1.0000
  H   H20       1.0  0.2644957033822735  0.03664833555381353  0.38308399245396885  1.0000
  H   H21       1.0  0.2645232576746892  0.6076446628842547  0.9653050589782382  1.0000
  H   H22       1.0  0.2645091330471345  0.6568474836513118  0.7701729301871795  1.0000
  H   H23       1.0  0.7355167995747182  0.8523786217014828  0.727864186552978  1.0000
  H   H24       1.0  0.7354906804990553  0.8830960611427302  0.5366446132789378  1.0000
  H   H25       1.0  0.12129572417861582  0.7800656048502858  0.17415645274281388  1.0000
  H   H26       1.0  0.8786940367337907  0.674108949064724  0.28007910520963025  1.0000
  H   H27       1.0  0.010767440766677737  0.6857895437754705  0.35918863093104403  1.0000
  H   H28       1.0  0.9891935915781432  0.8591231776347071  0.18582519416528967  1.0000
  H   H29       1.0  0.8786888504358716  0.20456929302364554  0.8412310069392746  1.0000
  H   H30       1.0  0.12128364082063581  0.34119160197158754  0.704596037921185  1.0000
  H   H31       1.0  0.9892031552392878  0.13005097100929672  0.8249742214295498  1.0000
  H   H32       1.0  0.010766069942754133  0.32496797400391836  0.6300831641610075  1.0000
  H   H33       1.0  0.5449567229038977  0.17502950270186804  0.3141761798593948  1.0000
  H   H34       1.0  0.5449657513931285  0.3699398608202741  0.14083303568868652  1.0000
  H   H35       1.0  0.45420555820727765  0.15879571378222576  0.21989256402542176  1.0000
  H   H36       1.0  0.4541986399927823  0.2954204073530208  0.32586907899533196  1.0000
  H   H37       1.0  0.45503116495623896  0.8141662179803717  0.6750266424585689  1.0000
  H   H38       1.0  0.4550438674643191  0.6408343663230482  0.8699385022415316  1.0000
  H   H39       1.0  0.5457857522136252  0.7199104925540566  0.6587755639745083  1.0000
  H   H40       1.0  0.5458076239034994  0.825857537979587  0.7954323177774402  1.0000
  C   C1        1.0  0.18128520490706282  0.090656630573271  0.4093431097820643  1.0000
  C   C2        1.0  0.9999881579557979  0.1391431714819048  0.36085270662625407  1.0000
  C   C3        1.0  0.9999810442692766  0.9093442312478219  0.4093493131789214  1.0000
  C   C4        1.0  0.818713825461977  0.9093455943222679  0.5906509908506551  1.0000
  C   C5        1.0  2.2095297971869724e-05  0.8608650074808823  0.6391533039509198  1.0000
  C   C6        1.0  0.9999947859701733  0.09065987342101771  0.5906457449691093  1.0000
  C   C7        1.0  6.4498792582412526e-06  0.5906378235142283  0.09064452095546474  1.0000
  C   C8        1.0  6.171198862141882e-06  0.360856608403637  0.13916229548441092  1.0000
  C   C9        1.0  0.8186916741888128  0.4093378083355503  0.09064731787223217  1.0000
  C   C10       1.0  0.9999901354868542  0.4093414878194108  0.9093716308117977  1.0000
  C   C11       1.0  0.9999741979443186  0.6391310710396352  0.8608524592234874  1.0000
  C   C12       1.0  0.18130524210757684  0.5906497698607254  0.9093410594183029  1.0000
  C   C13       1.0  1.7408678551901205e-05  0.8035556879381643  0.6964545173022999  1.0000
  C   C14       1.0  0.9999846276673665  0.6964404060395635  0.8035436266016095  1.0000
  C   C15       1.0  0.9567931871909465  0.7766885602073968  0.7665203933802052  1.0000
  C   C16       1.0  0.043197119727487625  0.7232973703882591  0.733478599437298  1.0000
  C   C17       1.0  0.9567904966795385  0.7233159477357631  0.8198924632901097  1.0000
  C   C18       1.0  0.0432267023856099  0.7766958330338979  0.6801053831291173  1.0000
  C   C19       1.0  0.9999903579853964  0.196451576596665  0.3035505033814659  1.0000
  C   C20       1.0  2.9592133330542465e-06  0.3035503254302867  0.19646563968898798  1.0000
  C   C21       1.0  0.9567762807303878  0.18011072039637097  0.276685153837214  1.0000
  C   C22       1.0  0.0432082788535055  0.31989180618172947  0.22334052162207038  1.0000
  C   C23       1.0  0.9567930543753322  0.23348698912114685  0.223303187786378  1.0000
  C   C24       1.0  0.04321383937911356  0.2665144193039808  0.2766977172191717  1.0000
  C   C25       1.0  1.0369970915808626e-05  0.6282341186476756  0.1282492451427898  1.0000
  C   C26       1.0  0.9546495097719901  0.6540514333652184  0.1376489607447482  1.0000
  C   C27       1.0  0.9526898693276  0.6872934069109038  0.17436678995334634  1.0000
  C   C28       1.0  0.9999964374594726  0.6989950550438023  0.1990426912435837  1.0000
  C   C29       1.0  0.04731573937813492  0.674345218768387  0.1873290503365653  1.0000
  C   C30       1.0  0.04536674979603119  0.6376345153493119  0.15407877115163882  1.0000
  C   C31       1.0  0.9999871218095823  0.7345769588349498  0.23465493296805565  1.0000
  C   C32       1.0  0.9999767465461816  0.7653377460354489  0.2654293523261871  1.0000
  C   C33       1.0  0.9999754647901826  0.8009408366899179  0.3010177085321361  1.0000
  C   C34       1.0  0.9604080645282735  0.8354014665324595  0.30291051460784524  1.0000
  C   C35       1.0  0.9593754764448054  0.8683499710823169  0.3399170090445198  1.0000
  C   C36       1.0  0.9999821614743709  0.8717325055209951  0.37176645450366436  1.0000
  C   C37       1.0  0.04058877131889458  0.8398911734948907  0.3683959447772341  1.0000
  C   C38       1.0  0.039556401430843456  0.8028628530385687  0.33547020658427584  1.0000
  C   C39       1.0  1.0755062901434851e-06  0.37173965275771786  0.8717741192574595  1.0000
  C   C40       1.0  0.045357776161545  0.40769220450952304  0.8005996477604215  1.0000
  C   C41       1.0  0.04731337666069628  0.37293294148710737  0.7653990582743477  1.0000
  C   C42       1.0  3.7319432237588805e-06  0.30096003367269464  0.8010005253383313  1.0000
  C   C43       1.0  0.9526929962060962  0.2653613155378805  0.8729672200887253  1.0000
  C   C44       1.0  0.9546491686942743  0.3005607402417566  0.9077293900554368  1.0000
  C   C45       1.0  0.9999952584486068  0.2653613170390654  0.7654034648055446  1.0000
  C   C46       1.0  0.9999871729116453  0.23460770796442185  0.7346250138301044  1.0000
  C   C47       1.0  0.9999783789429345  0.19902494049122768  0.6990164614594789  1.0000
  C   C48       1.0  0.03955281041382367  0.23669044945756917  0.6249897444496142  1.0000
  C   C49       1.0  0.04058920108396794  0.20070878741533696  0.5910182135289973  1.0000
  C   C50       1.0  0.999981015189526  0.12826152636770166  0.6282389432239202  1.0000
  C   C51       1.0  0.9593705873063031  0.09103479141261757  0.7006846333454678  1.0000
  C   C52       1.0  0.9604039399104636  0.12499984641605966  0.7366737269274781  1.0000
  C   C53       1.0  0.7434969615257216  0.3717448270904811  0.12824900457346902  1.0000
  C   C54       1.0  0.7082787156580538  0.408972459647387  0.1316296884920336  1.0000
  C   C55       1.0  0.6383255583709798  0.37501102608310094  0.16455814298093693  1.0000
  C   C56       1.0  0.6019558384341438  0.30098440499426715  0.19900457940761387  1.0000
  C   C57       1.0  0.6383186574847812  0.26331814593346786  0.1971047471914176  1.0000
  C   C58       1.0  0.7082738147074251  0.2992974766372212  0.16009264404274878  1.0000
  C   C59       1.0  0.5307637508432138  0.2653966930956457  0.23458106933588146  1.0000
  C   C60       1.0  0.46923212155058996  0.23463107815731377  0.265342867236484  1.0000
  C   C61       1.0  0.39803675376650466  0.19902901796061195  0.300945395625604  1.0000
  C   C62       1.0  0.36166888394551233  0.2346288079438068  0.31266360601532034  1.0000
  C   C63       1.0  0.29170623641658006  0.19943046729851224  0.34590793875800335  1.0000
  C   C64       1.0  0.2564846487113215  0.12825176047926592  0.37173157718277144  1.0000
  C   C65       1.0  0.29170535649652163  0.09229838524571932  0.3623296464894424  1.0000
  C   C66       1.0  0.36166389768255414  0.12705637675784937  0.3256094767620824  1.0000
  C   C67       1.0  0.2565017805814164  0.6282377541639759  0.8717466988508848  1.0000
  C   C68       1.0  0.29172735086418555  0.6316180366631412  0.9089761570457926  1.0000
  C   C69       1.0  0.36167931125515923  0.6645456585306988  0.8750131343397598  1.0000
  C   C70       1.0  0.3980405701263124  0.6989885309735513  0.8009880995205806  1.0000
  C   C71       1.0  0.36167439724621203  0.6970907592844783  0.7633192837617528  1.0000
  C   C72       1.0  0.2917202438083067  0.6600798101924212  0.7992990669339195  1.0000
  C   C73       1.0  0.46923450602070477  0.7345760492232286  0.7653964167961579  1.0000
  C   C74       1.0  0.530762790981875  0.7653446112652273  0.7346298269722527  1.0000
  C   C75       1.0  0.6019606678908859  0.8009523172778258  0.6990276588643671  1.0000
  C   C76       1.0  0.6383361703017062  0.8126699206005628  0.7346289815467699  1.0000
  C   C77       1.0  0.7082975155916884  0.8459169366849577  0.6994282049603416  1.0000
  C   C78       1.0  0.7435138525293185  0.8717416094463173  0.6282498131181885  1.0000
  C   C79       1.0  0.7082863754459866  0.8623389173772865  0.5922944732236176  1.0000
  C   C80       1.0  0.6383263991486389  0.8256221603883417  0.6270540552643525  1.0000
  C   C81       1.0  0.10007071701918611  0.6834779580891066  0.21045654428424856  1.0000
  C   C82       1.0  0.899938440894296  0.7104184176813317  0.18348263885898347  1.0000
  C   C83       1.0  0.08326984802152997  0.7682981097359659  0.3378633746319509  1.0000
  C   C84       1.0  0.9166997694558678  0.8377875745869757  0.26833110953068495  1.0000
  C   C85       1.0  0.8999305768416831  0.18949175291918136  0.9165892289938217  1.0000
  C   C86       1.0  0.10006617505729315  0.4165575283467362  0.6895279238220698  1.0000
  C   C87       1.0  0.9167026410943607  0.07890090597960853  0.814949186371365  1.0000
  C   C88       1.0  0.08326570303607643  0.31496855763439413  0.5789007381284961  1.0000
  C   C89       1.0  0.60613642593092  0.1850404174406818  0.23167662420961949  1.0000
  C   C90       1.0  0.6061513369493595  0.4211156385068335  0.16215572063183006  1.0000
  C   C91       1.0  0.3939067604421922  0.08342846054274844  0.31647280477879763  1.0000
  C   C92       1.0  0.3939176323716396  0.3105014694177938  0.2895477716201997  1.0000
  C   C93       1.0  0.3938507082484151  0.7316552137980563  0.685042028024448  1.0000
  C   C94       1.0  0.39386737564813507  0.6621622690955532  0.9211128646549299  1.0000
  C   C95       1.0  0.6060753679281988  0.8164985607192959  0.5834209610141488  1.0000
  C   C96       1.0  0.6060981872267919  0.7895524611920735  0.8105014028449916  1.0000
  O   O1        1.0  0.9999936515201355  0.9999939239640764  0.5000028171226845  1.0000
  O   O2        1.0  0.15268232645166083  0.025337743197745486  0.43344808109620214  1.0000
  O   O3        1.0  0.04037504202680965  0.1573205020488473  0.38317353655983777  1.0000
  O   O4        1.0  0.9596233532035183  0.9345206648158207  0.412749408191509  1.0000
  O   O5        1.0  0.15268548389687456  0.1273521280775753  0.41385649325125234  1.0000
  O   O6        1.0  0.0403523456768014  0.9127606870559858  0.4345299145194162  1.0000
  O   O7        1.0  0.9596002924815251  0.07644300763168832  0.38304821088900826  1.0000
  O   O8        1.0  0.8473095307472175  0.9334572597385529  0.5253383028388332  1.0000
  O   O9        1.0  0.9596477163159494  0.8831881718613345  0.6573324889110382  1.0000
  O   O10       1.0  0.8473204539383449  0.9138423678060119  0.6273580838143363  1.0000
  O   O11       1.0  0.04040352859247072  0.8830624096357765  0.5764492934940719  1.0000
  O   O12       1.0  0.04036588725950451  0.12760470034099566  0.5251142598396258  1.0000
  O   O13       1.0  0.9596341842851784  0.025118578780379153  0.6275995699618167  1.0000
  O   O14       1.0  1.1932594787958193e-06  0.4999985877879922  6.170961839380322e-07  1.0000
  O   O15       1.0  0.9587943108585505  0.5861348333423917  0.0665446757204437  1.0000
  O   O16       1.0  0.040525358199460064  0.42355882777991377  0.11683566482800256  1.0000
  O   O17       1.0  0.8472757899580259  0.37238668168448885  0.08724096677774923  1.0000
  O   O18       1.0  0.04121793821107642  0.5665405505833191  0.08614463061974227  1.0000
  O   O19       1.0  0.8472825610994831  0.47488150441329674  0.06546135318361498  1.0000
  O   O20       1.0  0.9594954692504772  0.34267899130837526  0.11696710802522858  1.0000
  O   O21       1.0  0.958792742101039  0.37264271443367375  0.9746734567772252  1.0000
  O   O22       1.0  0.0404681169653075  0.6169211744396037  0.8426725093184333  1.0000
  O   O23       1.0  0.041188555588121165  0.4746582096972175  0.8726539770654398  1.0000
  O   O24       1.0  0.959481212287848  0.616821613459244  0.9235501451706228  1.0000
  O   O25       1.0  0.1527231266717666  0.5654772910234273  0.9748770083092924  1.0000
  O   O26       1.0  0.15271314849373863  0.5872430675094904  0.8723842892539866  1.0000
  O   O27       1.0  0.13703252371806232  0.7482494248125204  0.19609830648981613  1.0000
  O   O28       1.0  0.11127587303229805  0.6359631165854438  0.23824828998368025  1.0000
  O   O29       1.0  0.8629668199225906  0.6960531520698722  0.24825108760445874  1.0000
  O   O30       1.0  0.8887457415846924  0.7382112342057638  0.13595683393573677  1.0000
  O   O31       1.0  0.055905502951958556  0.7011804769328479  0.3542837062161084  1.0000
  O   O32       1.0  0.13963760952056262  0.7977417055005985  0.3285486260728092  1.0000
  O   O33       1.0  0.9440446269054946  0.8541829734320814  0.20122491614909407  1.0000
  O   O34       1.0  0.860328620095139  0.8284764711956143  0.2977732920100777  1.0000
  O   O35       1.0  0.8629521396414219  0.16689838937803358  0.888785804443451  1.0000
  O   O36       1.0  0.8887304991802908  0.15049695652906084  0.9753101898744633  1.0000
  O   O37       1.0  0.13702285065746614  0.3887470910663139  0.6669263165647551  1.0000
  O   O38       1.0  0.1112773853912472  0.47528119210900144  0.6505446545222001  1.0000
  O   O39       1.0  0.9440573848675129  0.08983707926325489  0.8547135819646032  1.0000
  O   O40       1.0  0.860326513769472  0.031846281656065206  0.8418693690961448  1.0000
  O   O41       1.0  0.05591182725694928  0.3547180515979633  0.5898726346105363  1.0000
  O   O42       1.0  0.139629486018805  0.34189851626215517  0.5318454884561136  1.0000
  O   O43       1.0  0.5554179866095338  0.1452812074227764  0.29877746608114836  1.0000
  O   O44       1.0  0.6262722043974592  0.1581137719734471  0.20223495585990753  1.0000
  O   O45       1.0  0.5554419087813544  0.41016249876117433  0.14574981885380825  1.0000
  O   O46       1.0  0.6262859340106246  0.4681744945230475  0.17146565760648985  1.0000
  O   O47       1.0  0.4443147664909688  0.11123701172988375  0.25170546206848604  1.0000
  O   O48       1.0  0.3741645504100575  0.024700543011000758  0.3639830605843601  1.0000
  O   O49       1.0  0.44431867695539756  0.33309450233779353  0.30393132356889657  1.0000
  O   O50       1.0  0.3741960339476337  0.3494956311310986  0.26175199051034076  1.0000
  O   O51       1.0  0.4445578742817845  0.7987616707597313  0.6452834425552609  1.0000
  O   O52       1.0  0.3737165332040889  0.7022052190587188  0.6581193994614554  1.0000
  O   O53       1.0  0.4445812555484992  0.6457666497585562  0.9101522586306389  1.0000
  O   O54       1.0  0.37374565337410814  0.6714746685548577  0.9681641728952503  1.0000
  O   O55       1.0  0.555669741953807  0.751729155046732  0.6112198972877182  1.0000
  O   O56       1.0  0.6258069392161831  0.8640165356181058  0.5247043986816282  1.0000
  O   O57       1.0  0.5556964353493117  0.8039239945497698  0.833102353244307  1.0000
  O   O58       1.0  0.6258334827815518  0.7617666347311527  0.8494910190218834  1.0000
