data_image0
_chemical_formula_structural       Li4H44C24S4N8O16
_chemical_formula_sum              "Li4 H44 C24 S4 N8 O16"
_cell_length_a       7.743724674003103
_cell_length_b       8.148537371258628
_cell_length_c       14.431713428016222
_cell_angle_alpha    94.79439218660879
_cell_angle_beta     90.0000529808969
_cell_angle_gamma    90.00008205299915

_space_group_name_H-M_alt    "P 1"
_space_group_IT_number       1

loop_
  _space_group_symop_operation_xyz
  'x, y, z'

loop_
  _atom_site_type_symbol
  _atom_site_label
  _atom_site_symmetry_multiplicity
  _atom_site_fract_x
  _atom_site_fract_y
  _atom_site_fract_z
  _atom_site_occupancy
  Li  Li1       1.0  0.7842109412368431  0.3271894814498353  0.2608439571144102  1.0000
  Li  Li2       1.0  0.28421019146107074  0.6728101213346775  0.23915575908342385  1.0000
  Li  Li3       1.0  0.2157887635561835  0.6728098508374174  0.739156397126436  1.0000
  Li  Li4       1.0  0.7157895133323465  0.32719044882382786  0.7608439642465468  1.0000
  H   H1        1.0  0.06409608088809898  0.14772533973342664  0.23453921440006542  1.0000
  H   H2        1.0  0.564095040605494  0.8522739360907253  0.2654610688938064  1.0000
  H   H3        1.0  0.9359062066437218  0.8522739670975314  0.7654639102767503  1.0000
  H   H4        1.0  0.4359033728179399  0.14772665316047554  0.7345365766093718  1.0000
  H   H5        1.0  0.9057400834162265  0.029324749257376905  0.2518525588015875  1.0000
  H   H6        1.0  0.405741085535432  0.970675030534686  0.248147226694428  1.0000
  H   H7        1.0  0.0942622041155943  0.9706745575735809  0.7481505658752354  1.0000
  H   H8        1.0  0.5942599106244515  0.029325558718397808  0.7518504188094894  1.0000
  H   H9        1.0  0.7207238730976968  0.5576031407119546  0.6078470124118383  1.0000
  H   H10       1.0  0.22072433114719556  0.44239716613702745  0.8921533517751354  1.0000
  H   H11       1.0  0.27927583169513076  0.44239743581109553  0.39215201830932495  1.0000
  H   H12       1.0  0.7792753736473942  0.557603391292389  0.10784775677245757  1.0000
  H   H13       1.0  0.5289786779934645  0.2808899603846626  0.547687875198676  1.0000
  H   H14       1.0  0.0289770694524876  0.7191100735519456  0.9523116870430071  1.0000
  H   H15       1.0  0.47102231816759144  0.7191106161393324  0.4523111555228566  1.0000
  H   H16       1.0  0.9710213439742573  0.2808917217477784  0.047688790593341  1.0000
  H   H17       1.0  0.7384630856935529  0.20130291108388584  0.5533378898573886  1.0000
  H   H18       1.0  0.2384628778404263  0.7986949585882359  0.9466623610486876  1.0000
  H   H19       1.0  0.26153661909868486  0.7986976718037085  0.4466604482549669  1.0000
  H   H20       1.0  0.7615355355855442  0.20130436096899734  0.05333937840941159  1.0000
  H   H21       1.0  0.55887227394863  0.017514615908695002  0.4417563073755274  1.0000
  H   H22       1.0  0.05887167859226141  0.9824858838140428  0.0582440346377169  1.0000
  H   H23       1.0  0.4411287222135982  0.9824859478862039  0.5582441085636276  1.0000
  H   H24       1.0  0.9411293175709403  0.017515911487556907  0.9417564429993629  1.0000
  H   H25       1.0  0.7255052793600711  0.10732145366989701  0.38052243359936  1.0000
  H   H26       1.0  0.22550336280128394  0.8926768257381783  0.11947788003419647  1.0000
  H   H27       1.0  0.274495716800594  0.8926778849828454  0.6194772280330483  1.0000
  H   H28       1.0  0.774495050624104  0.10732250018359223  0.880523166815095  1.0000
  H   H29       1.0  0.5130003618381167  0.1862215965933913  0.3760145956704761  1.0000
  H   H30       1.0  0.012997043670502296  0.8137776048085714  0.12398565848722849  1.0000
  H   H31       1.0  0.4870006343215821  0.8137765105526427  0.6239850042639999  1.0000
  H   H32       1.0  0.9870000783886042  0.18622418412566333  0.8760155117575577  1.0000
  H   H33       1.0  0.9144124723544778  0.9105302814726316  0.4779799986975774  1.0000
  H   H34       1.0  0.41441306324886534  0.0894695173149387  0.022019099134631397  1.0000
  H   H35       1.0  0.0855872324385487  0.08946905081462121  0.5220203555432689  1.0000
  H   H36       1.0  0.5855853501753502  0.9105298213359206  0.9779805624970378  1.0000
  H   H37       1.0  0.9716704739443998  0.824567669370417  0.5835945195693596  1.0000
  H   H38       1.0  0.4716705743278311  0.17543300934465125  0.9164052951020947  1.0000
  H   H39       1.0  0.0283318135850763  0.1754316629187187  0.4164058346722256  1.0000
  H   H40       1.0  0.5283291304655789  0.8245675608138542  0.083594428227876  1.0000
  H   H41       1.0  0.7605808852310503  0.9009491395996181  0.5686628995321357  1.0000
  H   H42       1.0  0.26058218827773066  0.09905246317266149  0.9313368564712546  1.0000
  H   H43       1.0  0.2394188195619762  0.0990501926876348  0.43133745470871077  1.0000
  H   H44       1.0  0.7394175165166531  0.9009493384925522  0.06866292855665529  1.0000
  C   C1        1.0  0.7184405148909007  0.4126682237907673  0.477783810212749  1.0000
  C   C2        1.0  0.21843797613589538  0.5873312704692354  0.022217253698940502  1.0000
  C   C3        1.0  0.28155789853428814  0.5873323463668003  0.5222159131168523  1.0000
  C   C4        1.0  0.781557854554009  0.41266928695736044  0.9777838548475444  1.0000
  C   C5        1.0  0.646509919199424  0.2546300337779925  0.5059455078202717  1.0000
  C   C6        1.0  0.1465084210717933  0.7453676955995548  0.9940553832612125  1.0000
  C   C7        1.0  0.3534884942242087  0.7453693112374113  0.49405346120259  1.0000
  C   C8        1.0  0.8534899923541773  0.25463162395767114  0.005946356196886903  1.0000
  C   C9        1.0  0.6086093917519335  0.13493802398249247  0.4215802489278886  1.0000
  C   C10       1.0  0.10860736391938987  0.8650613166742362  0.07842005974783463  1.0000
  C   C11       1.0  0.3913903130405102  0.865061314669312  0.5784194127041502  1.0000
  C   C12       1.0  0.8913910495085277  0.1349404658963991  0.9215818031061287  1.0000
  C   C13       1.0  0.8160746130112102  0.6720404791547311  0.48894131680032865  1.0000
  C   C14       1.0  0.31607425030415476  0.32795917003925723  0.011058417566751206  1.0000
  C   C15       1.0  0.18392767451827297  0.3279588531344047  0.5110590374412567  1.0000
  C   C16       1.0  0.6839241631210341  0.672041400118303  0.9889413057628572  1.0000
  C   C17       1.0  0.8681776060237  0.8356216140224433  0.5322584030115463  1.0000
  C   C18       1.0  0.368177777405556  0.1643776824494054  0.9677412909488651  1.0000
  C   C19       1.0  0.1318246815051936  0.16437772463124392  0.46774125862123117  1.0000
  C   C20       1.0  0.6318219273878543  0.8356228877091001  0.032258432381105706  1.0000
  C   C21       1.0  0.8220109039017912  0.6033191180839735  0.39803569269982825  1.0000
  C   C22       1.0  0.32201079889006934  0.39668053339182313  0.10196473766108478  1.0000
  C   C23       1.0  0.17799009225946352  0.39668021420422417  0.6019646615413874  1.0000
  C   C24       1.0  0.6779889059039307  0.6033200304021307  0.8980356782777008  1.0000
  S   S1        1.0  0.8961070038191538  0.6842247395930768  0.2963808517543923  1.0000
  S   S2        1.0  0.3961082425599328  0.3157762576753528  0.20361898994669755  1.0000
  S   S3        1.0  0.10389399234346543  0.31577706207307443  0.7036189332738798  1.0000
  S   S4        1.0  0.6038927536022881  0.6842243061195461  0.7963814259924503  1.0000
  N   N1        1.0  0.7623870162341716  0.442836245489282  0.39176737404781636  1.0000
  N   N2        1.0  0.26238328766734037  0.5571633127775969  0.10823371492246989  1.0000
  N   N3        1.0  0.23761397992746683  0.5571643246701613  0.6082323492825309  1.0000
  N   N4        1.0  0.7376125430225641  0.4428372446489988  0.8917673936240147  1.0000
  N   N5        1.0  0.7495135697266093  0.54836191098444  0.5378002415887052  1.0000
  N   N6        1.0  0.24951286964037678  0.45163843779566554  0.9622001390142427  1.0000
  N   N7        1.0  0.2504861350668008  0.4516386591740654  0.4621994817412726  1.0000
  N   N8        1.0  0.7504855437853947  0.5483621259973502  0.03780027692416609  1.0000
  O   O1        1.0  0.8686161928671084  0.5471390481122  0.2240035314866162  1.0000
  O   O2        1.0  0.36861775989427775  0.4528619027517635  0.275996987147721  1.0000
  O   O3        1.0  0.1313835119268916  0.4528615156817609  0.7759968844521692  1.0000
  O   O4        1.0  0.6313832362679436  0.5471386610431352  0.724003428791427  1.0000
  O   O5        1.0  0.07864384237720401  0.728041388563746  0.3104831120231636  1.0000
  O   O6        1.0  0.578643096631069  0.2719591526851133  0.18951585604645516  1.0000
  O   O7        1.0  0.9213571537838519  0.27195918796024904  0.6895159186983688  1.0000
  O   O8        1.0  0.4213566081623413  0.7280414174733921  0.8104838672835227  1.0000
  O   O9        1.0  0.7931876345100689  0.8315494802716261  0.2793956209893479  1.0000
  O   O10       1.0  0.29318739064426314  0.16845012285865127  0.22060548554488688  1.0000
  O   O11       1.0  0.20681336165215214  0.1684510835232729  0.7206047949498  1.0000
  O   O12       1.0  0.7068136055175742  0.8315492030650025  0.7793955613051365  1.0000
  O   O13       1.0  0.9377299347086988  0.1435963755323115  0.24268442954635103  1.0000
  O   O14       1.0  0.43772949029482777  0.8564022257095161  0.2573146198835872  1.0000
  O   O15       1.0  0.06227235282429431  0.8564029185695576  0.7573200803480872  1.0000
  O   O16       1.0  0.5622702144983902  0.1435995886847863  0.7426837799267004  1.0000
