data_image0
_chemical_formula_structural       Cd4P8H48C32N16O32
_chemical_formula_sum              "Cd4 P8 H48 C32 N16 O32"
_cell_length_a       7.190542938009581
_cell_length_b       12.490524566004797
_cell_length_c       16.04101119101532
_cell_angle_alpha    90.00000631871339
_cell_angle_beta     90.00015811291776
_cell_angle_gamma    90.00010020050922

_space_group_name_H-M_alt    "P 1"
_space_group_IT_number       1

loop_
  _space_group_symop_operation_xyz
  'x, y, z'

loop_
  _atom_site_type_symbol
  _atom_site_label
  _atom_site_symmetry_multiplicity
  _atom_site_fract_x
  _atom_site_fract_y
  _atom_site_fract_z
  _atom_site_occupancy
  Cd  Cd1       1.0  2.3001088109999997e-06  0.5000022567518769  0.5000002946525157  1.0000
  Cd  Cd2       1.0  0.9999972380328115  0.9999986117461716  0.9999987137326941  1.0000
  Cd  Cd3       1.0  0.49999868354731086  0.9999991230946109  0.5000000003420197  1.0000
  Cd  Cd4       1.0  0.5000005555919883  0.5000000687724367  3.2909431270000017e-07  1.0000
  P   P1        1.0  0.755382110188954  0.3592943494886142  0.16124343343734893  1.0000
  P   P2        1.0  0.24461938400746414  0.14070443165085322  0.6612440069689286  1.0000
  P   P3        1.0  0.7446208186139528  0.8592926111782688  0.8387549746928686  1.0000
  P   P4        1.0  0.25538328898100804  0.640706631787097  0.3387550123731486  1.0000
  P   P5        1.0  0.24462069071240217  0.6407058634742241  0.838756527103037  1.0000
  P   P6        1.0  0.7553792447491074  0.8592957813099319  0.3387565769709796  1.0000
  P   P7        1.0  0.2553792008506973  0.1407051999624613  0.161244362443604  1.0000
  P   P8        1.0  0.7446195119208596  0.35929518238947383  0.6612443247652067  1.0000
  H   H1        1.0  0.4050179924852627  0.3229618394145248  0.2589752088488382  1.0000
  H   H2        1.0  0.5949785409635239  0.17703855767751261  0.7589755949712754  1.0000
  H   H3        1.0  0.09497967160597652  0.8229591351891659  0.7410213315157679  1.0000
  H   H4        1.0  0.9050210524318771  0.6770360899985733  0.24102279852277064  1.0000
  H   H5        1.0  0.5949848084197383  0.6770407753689726  0.74102475169164  1.0000
  H   H6        1.0  0.40502147851419307  0.8229640571046843  0.24102561237167924  1.0000
  H   H7        1.0  0.905018957134203  0.17703787534379256  0.2589755120114319  1.0000
  H   H8        1.0  0.09498313918260952  0.3229625217511867  0.7589771620184111  1.0000
  H   H9        1.0  0.5679495299757633  0.4062482733849323  0.49852941295635134  1.0000
  H   H10       1.0  0.43205126076465916  0.09375135923534832  0.9985295909972861  1.0000
  H   H11       1.0  0.9320451972531812  0.9062482740050514  0.5014683755368949  1.0000
  H   H12       1.0  0.06795266021924108  0.5937509180828329  0.0014694245753972004  1.0000
  H   H13       1.0  0.43205048950002817  0.5937543413972223  0.5014711709845089  1.0000
  H   H14       1.0  0.5679445865651404  0.9062504549378616  0.0014716163430606004  1.0000
  H   H15       1.0  0.06794647791979709  0.09375193895209583  0.498530338192417  1.0000
  H   H16       1.0  0.9320515313964605  0.40624849427381093  0.9985305359658199  1.0000
  H   H17       1.0  0.9621904377045637  0.43496062245384354  0.3116748538942319  1.0000
  H   H18       1.0  0.0378078111359343  0.06503898198112522  0.8116757891183823  1.0000
  H   H19       1.0  0.5378057675082956  0.9349578527518576  0.6883229369052588  1.0000
  H   H20       1.0  0.4621918504350191  0.5650389656994222  0.18832509435253542  1.0000
  H   H21       1.0  0.03781653534944239  0.5650371886906599  0.6883282236591202  1.0000
  H   H22       1.0  0.9621894269125659  0.934963632799722  0.18832604162494707  1.0000
  H   H23       1.0  0.46219007981470367  0.06504075899376012  0.31167764703286593  1.0000
  H   H24       1.0  0.5378095597533984  0.4349604466559284  0.8116761129911583  1.0000
  H   H25       1.0  0.7930830631528847  0.6929016770903331  0.4626172390564563  1.0000
  H   H26       1.0  0.20691902611496  0.8070983851636625  0.9626184027494562  1.0000
  H   H27       1.0  0.7069179691838272  0.19290262276457076  0.5373824025165277  1.0000
  H   H28       1.0  0.2930827619225269  0.3070969402989121  0.03738312356077241  1.0000
  H   H29       1.0  0.2069169563117654  0.307096134050397  0.5373820980800164  1.0000
  H   H30       1.0  0.7930809933622385  0.19290262840480216  0.03738342799552902  1.0000
  H   H31       1.0  0.29308344099811723  0.8070975901974718  0.4626163112188096  1.0000
  H   H32       1.0  0.7069186482627501  0.6929016714494977  0.962617460380784  1.0000
  H   H33       1.0  0.7316998938023217  0.6581633203760406  0.5558332683498435  1.0000
  H   H34       1.0  0.26829968932640463  0.8418390823403783  0.05583458495247131  1.0000
  H   H35       1.0  0.7682996422282499  0.1581619119326447  0.4441669938349264  1.0000
  H   H36       1.0  0.2316980321624413  0.34183771248637385  0.9441675675468206  1.0000
  H   H37       1.0  0.2683015163846818  0.3418376931929856  0.44416669218971816  1.0000
  H   H38       1.0  0.7316961580072315  0.158162731832924  0.9441678691920644  1.0000
  H   H39       1.0  0.23169759580456167  0.8418366998135199  0.5558317198977607  1.0000
  H   H40       1.0  0.7683033780240507  0.658161699868927  0.05583301639477161  1.0000
  H   H41       1.0  0.06617816319671728  0.32924001995163366  0.1501620340164322  1.0000
  H   H42       1.0  0.9338218720135883  0.17076116133623034  0.6501615916664678  1.0000
  H   H43       1.0  0.4338195199838495  0.829235271260174  0.8498376238626904  1.0000
  H   H44       1.0  0.5661804837380942  0.6707623721609224  0.34983680132539524  1.0000
  H   H45       1.0  0.9338232469883605  0.6707609936173428  0.849837303121035  1.0000
  H   H46       1.0  0.06617814745228398  0.8292374504113837  0.3498377454700403  1.0000
  H   H47       1.0  0.5661777180460134  0.17076013805849044  0.1501617132719701  1.0000
  H   H48       1.0  0.43382370787499275  0.3292378408025201  0.6501619124116615  1.0000
  C   C1        1.0  0.6945636942075237  0.37215127316908087  0.270858057128443  1.0000
  C   C2        1.0  0.30543291244134707  0.1278467238945566  0.7708568345948734  1.0000
  C   C3        1.0  0.8054323200944252  0.872147978303488  0.7291403520297736  1.0000
  C   C4        1.0  0.1945683307466837  0.6278480456990252  0.22914156031178837  1.0000
  C   C5        1.0  0.3054391067027352  0.6278497404008336  0.7291443970203633  1.0000
  C   C6        1.0  0.694568497743738  0.8721542896744269  0.22914250254259375  1.0000
  C   C7        1.0  0.19456630865152386  0.12784903222961222  0.2708583617037092  1.0000
  C   C8        1.0  0.8054358608714551  0.37215296787140056  0.7708584002294927  1.0000
  C   C9        1.0  0.5155132955216928  0.34949641225759354  0.30100504752365964  1.0000
  C   C10       1.0  0.4844876690163743  0.15050319056941666  0.8010065417412022  1.0000
  C   C11       1.0  0.9844840406317059  0.8494932930063684  0.698992113012139  1.0000
  C   C12       1.0  0.015513643040122798  0.6505027264472857  0.19899372519090266  1.0000
  C   C13       1.0  0.4844922868182877  0.6505062025274031  0.6989961598227339  1.0000
  C   C14       1.0  0.5155109597491006  0.8494978229984442  0.19899653580711882  1.0000
  C   C15       1.0  0.015514588112317498  0.150503717526675  0.3010059773192496  1.0000
  C   C16       1.0  0.9844877671456655  0.34949748651484913  0.8010062353486236  1.0000
  C   C17       1.0  0.6031705759205221  0.39726387564319054  0.4326769773444924  1.0000
  C   C18       1.0  0.39683119982824167  0.10273654765165934  0.9326771125713692  1.0000
  C   C19       1.0  0.8968255147110823  0.8972622495434734  0.5673201870260485  1.0000
  C   C20       1.0  0.1031713577498508  0.6027353512629149  0.0673219037218971  1.0000
  C   C21       1.0  0.39683083427346577  0.6027379385328685  0.5673248534013882  1.0000
  C   C22       1.0  0.6031660382195484  0.8972668677360219  0.06732409476990141  1.0000
  C   C23       1.0  0.10316755117240459  0.10273716280739359  0.43267727989990595  1.0000
  C   C24       1.0  0.8968314431502832  0.39726406109303997  0.9326780568184534  1.0000
  C   C25       1.0  0.8212970616953895  0.41158683479309843  0.3290813992052294  1.0000
  C   C26       1.0  0.1786999036625758  0.08841197165971694  0.8290806402547661  1.0000
  C   C27       1.0  0.678700463189422  0.9115842042336126  0.670917013120402  1.0000
  C   C28       1.0  0.3213012196632122  0.5884118109873882  0.1709189982895722  1.0000
  C   C29       1.0  0.17870712992485943  0.5884117769568037  0.6709204315422427  1.0000
  C   C30       1.0  0.8212959436665129  0.9115906431203342  0.1709199436835149  1.0000
  C   C31       1.0  0.32129677484723357  0.08841440751265138  0.3290829474164881  1.0000
  C   C32       1.0  0.6787029719532  0.4115868007624215  0.829081585653711  1.0000
  N   N1        1.0  0.47092721926549774  0.36023573670351533  0.3816769920464438  1.0000
  N   N2        1.0  0.5290686794128661  0.1397630776820193  0.881676670304266  1.0000
  N   N3        1.0  0.029067776692720298  0.860234548864895  0.6183195513094477  1.0000
  N   N4        1.0  0.9709308006817992  0.6397630596347383  0.11832047339261463  1.0000
  N   N5        1.0  0.5290741909227208  0.6397660774724017  0.6183229684931464  1.0000
  N   N6        1.0  0.4709271679111637  0.8602387364910483  0.11832266682979052  1.0000
  N   N7        1.0  0.9709280706206799  0.13976406288048082  0.38167791561819103  1.0000
  N   N8        1.0  0.029072000214497996  0.36023635272111676  0.881678240343547  1.0000
  N   N9        1.0  0.7748474303565659  0.4252803977000782  0.40952206051721163  1.0000
  N   N10       1.0  0.22515003058988728  0.074718420886299  0.9095226046872754  1.0000
  N   N11       1.0  0.7251501361510577  0.9252794029588716  0.5904757295059256  1.0000
  N   N12       1.0  0.27484966039681774  0.5747174007347128  0.09047703275663113  1.0000
  N   N13       1.0  0.22515397983447372  0.5747182140484739  0.5904803936306352  1.0000
  N   N14       1.0  0.7748444260279898  0.9252857951068736  0.09047860265230413  1.0000
  N   N15       1.0  0.2748443204537593  0.0747200093928342  0.409523607627179  1.0000
  N   N16       1.0  0.7251531405021012  0.4252812110143439  0.909522927783698  1.0000
  O   O1        1.0  0.9683507613099495  0.389738333801084  0.15662228654453975  1.0000
  O   O2        1.0  0.03164792298109379  0.11025964603298628  0.6566219709811278  1.0000
  O   O3        1.0  0.5316508693098853  0.8897355812905376  0.843375500627218  1.0000
  O   O4        1.0  0.46835326675495986  0.6102628617649941  0.34337704591553125  1.0000
  O   O5        1.0  0.0316506488758392  0.610261879161051  0.8433776739949935  1.0000
  O   O6        1.0  0.9683507057706109  0.889737364500249  0.3433786129586522  1.0000
  O   O7        1.0  0.4683505408640585  0.11026062863701472  0.15662258970586154  1.0000
  O   O8        1.0  0.5316481434313401  0.3897389524108732  0.6566222912219645  1.0000
  O   O9        1.0  0.728036213621287  0.24264190720509768  0.13556984332961264  1.0000
  O   O10       1.0  0.2719637316836838  0.25735526884731297  0.6355698366263456  1.0000
  O   O11       1.0  0.7719621884567542  0.7426377984596897  0.8644273086270078  1.0000
  O   O12       1.0  0.22804207729942044  0.757362248984812  0.3644260750737659  1.0000
  O   O13       1.0  0.27196102442336917  0.7573607075756499  0.8644307406095282  1.0000
  O   O14       1.0  0.7280376784921785  0.7426409410802961  0.36442887710882843  1.0000
  O   O15       1.0  0.2280378310003996  0.25735761086028225  0.13557078170517667  1.0000
  O   O16       1.0  0.7719635050295466  0.2426419670136326  0.635570768458024  1.0000
  O   O17       1.0  0.6431346694202346  0.44406414821379775  0.1175011125902046  1.0000
  O   O18       1.0  0.35685960170049924  0.055932224503443706  0.6175005712535084  1.0000
  O   O19       1.0  0.8568629541744668  0.9440585264078224  0.88249667894101  1.0000
  O   O20       1.0  0.1431386414842635  0.5559399225473598  0.3824996880835201  1.0000
  O   O21       1.0  0.3568653500613124  0.5559384665684917  0.882501341556946  1.0000
  O   O22       1.0  0.6431390270475603  0.9440623842091256  0.3825000126861724  1.0000
  O   O23       1.0  0.14313706528199083  0.05593768351899092  0.11750078798911552  1.0000
  O   O24       1.0  0.8568613779963952  0.44406589466234453  0.6175008958574679  1.0000
  O   O25       1.0  0.8385317647529147  0.661850165828177  0.5158751303707307  1.0000
  O   O26       1.0  0.16146757219728866  0.8381514302541646  0.015876314624222208  1.0000
  O   O27       1.0  0.6614691731999327  0.16185025713175344  0.48412450870890933  1.0000
  O   O28       1.0  0.33853291951093206  0.3381493733164689  0.9841252141785618  1.0000
  O   O29       1.0  0.16146825471660253  0.3381508477401027  0.48412420676587703  1.0000
  O   O30       1.0  0.8385296658480712  0.1618503839197416  0.9841248927169775  1.0000
  O   O31       1.0  0.3385308462671475  0.8381491552227516  0.5158748284276344  1.0000
  O   O32       1.0  0.6614698813911273  0.6618500390395357  0.015875369763890007  1.0000
