data_image0
_chemical_formula_structural       Zn2H72C104N8O16
_chemical_formula_sum              "Zn2 H72 C104 N8 O16"
_cell_length_a       9.016573855000038
_cell_length_b       13.718062043521929
_cell_length_c       21.08756060840889
_cell_angle_alpha    92.67025738149991
_cell_angle_beta     89.99998957223836
_cell_angle_gamma    90.0000015179037

_space_group_name_H-M_alt    "P 1"
_space_group_IT_number       1

loop_
  _space_group_symop_operation_xyz
  'x, y, z'

loop_
  _atom_site_type_symbol
  _atom_site_label
  _atom_site_symmetry_multiplicity
  _atom_site_fract_x
  _atom_site_fract_y
  _atom_site_fract_z
  _atom_site_occupancy
  Zn  Zn1       1.0  0.9999994759650545  0.49999994005602133  0.49999989841144554  1.0000
  Zn  Zn2       1.0  0.5000003507430221  0.5000001580971514  0.9999998245683134  1.0000
  H   H1        1.0  0.5063307932340919  0.6515160145897952  0.5859463343179812  1.0000
  H   H2        1.0  0.006330376555673899  0.3484843652823599  0.9140536350655638  1.0000
  H   H3        1.0  0.49366858624199483  0.3484838595056985  0.4140535012106882  1.0000
  H   H4        1.0  0.9936701119891465  0.651516968329446  0.08594624405520791  1.0000
  H   H5        1.0  0.4112824732069241  0.5381336095888257  0.6780868408677778  1.0000
  H   H6        1.0  0.911281672750505  0.46186677515615315  0.821913097167837  1.0000
  H   H7        1.0  0.5887180153377755  0.461866264999955  0.32191346888890854  1.0000
  H   H8        1.0  0.0887177067255891  0.5381338286974967  0.17808676015690855  1.0000
  H   H9        1.0  0.9428968059662209  0.3107338284005863  0.7121323051370325  1.0000
  H   H10       1.0  0.442896456634422  0.6892658269666613  0.7878676086551764  1.0000
  H   H11       1.0  0.05710368257857821  0.6892660456949216  0.28786753039160123  1.0000
  H   H12       1.0  0.5571029228416648  0.31073404712883246  0.21213222687349292  1.0000
  H   H13       1.0  0.6979833927516096  0.26350561069450146  0.6443347038470648  1.0000
  H   H14       1.0  0.1979841255003691  0.7364940417256846  0.8556652289042362  1.0000
  H   H15       1.0  0.3020159867243706  0.7364942638942649  0.35566560590967106  1.0000
  H   H16       1.0  0.80201636304443  0.2635058323698233  0.14433460662439054  1.0000
  H   H17       1.0  0.5997975829769046  0.6032057991888493  0.47063294857689913  1.0000
  H   H18       1.0  0.09979844112734779  0.39679356439050656  0.029366783587050808  1.0000
  H   H19       1.0  0.4002017964990685  0.3967933456417753  0.5293673393837608  1.0000
  H   H20       1.0  0.900202047417551  0.6032063092117211  0.9706325777135165  1.0000
  H   H21       1.0  0.8077635008234337  0.7146678912238046  0.45108978074562606  1.0000
  H   H22       1.0  0.3077643462004076  0.28533220510944807  0.0489104313434865  1.0000
  H   H23       1.0  0.19223476958382685  0.28533125360680606  0.5489105072150764  1.0000
  H   H24       1.0  0.6922361423444059  0.7146683987442091  0.9510894259812163  1.0000
  H   H25       1.0  0.5045840447404757  0.9576943376759812  0.4515249368394977  1.0000
  H   H26       1.0  0.0045837715308608  0.042305755009074596  0.04847529871926071  1.0000
  H   H27       1.0  0.49541533473549737  0.04230480715463608  0.5484753511211552  1.0000
  H   H28       1.0  0.9954167170138388  0.9576941195796992  0.9515250110374253  1.0000
  H   H29       1.0  0.294957851151814  0.8452193800010266  0.4703734800678419  1.0000
  H   H30       1.0  0.7949582719829138  0.15477998641998172  0.02962671121652251  1.0000
  H   H31       1.0  0.7050404192555461  0.15477976433631108  0.529626333664794  1.0000
  H   H32       1.0  0.20504221656178598  0.845219888168799  0.9703735985401708  1.0000
  H   H33       1.0  0.1232518521248025  0.8849898546077455  0.3811715302694766  1.0000
  H   H34       1.0  0.6232511243097674  0.1150109692633947  0.11882871789911321  1.0000
  H   H35       1.0  0.8767486364199043  0.11501074973917719  0.6188288012832858  1.0000
  H   H36       1.0  0.3767482551663264  0.8849896345902482  0.8811711394256323  1.0000
  H   H37       1.0  0.0719862481585949  0.9725144653502086  0.4437428383292358  1.0000
  H   H38       1.0  0.5719877616344604  0.0274856281459179  0.05625739201174441  1.0000
  H   H39       1.0  0.928012022248666  0.027485409238551004  0.5562574714275428  1.0000
  H   H40       1.0  0.42801272691025355  0.972514976201012  0.9437429395410178  1.0000
  H   H41       1.0  0.003188514556868  0.9859923358544551  0.3648379548296177  1.0000
  H   H42       1.0  0.5031888848217889  0.014007756320545198  0.1351618066090836  1.0000
  H   H43       1.0  0.9968119739879311  0.014007538241052902  0.635161880699009  1.0000
  H   H44       1.0  0.496811603722925  0.9859928480263845  0.8648385249436785  1.0000
  H   H45       1.0  0.1182975540988878  0.5368512829903692  0.7621014419867294  1.0000
  H   H46       1.0  0.6182978985426002  0.4631483689642266  0.7378989711612577  1.0000
  H   H47       1.0  0.881701825377  0.46314859209167747  0.2378993419980659  1.0000
  H   H48       1.0  0.3817025900022983  0.5368515046380082  0.2621003901393096  1.0000
  H   H49       1.0  0.2234150642330093  0.48415869363557806  0.8646729487043459  1.0000
  H   H50       1.0  0.7234143453952484  0.5158416893420467  0.6353274781024396  1.0000
  H   H51       1.0  0.7765854243116904  0.5158411809532026  0.13532736105234022  1.0000
  H   H52       1.0  0.27658614314945845  0.4841589150048833  0.3646728534503226  1.0000
  H   H53       1.0  0.40909980059058876  0.22925016744437707  0.7683199132570165  1.0000
  H   H54       1.0  0.9090990508953566  0.7707494880094573  0.7316804773795412  1.0000
  H   H55       1.0  0.5909006879541039  0.7707489773862478  0.2316803747035934  1.0000
  H   H56       1.0  0.09090032858063779  0.2292511163374655  0.2683198541732636  1.0000
  H   H57       1.0  0.2989338094145353  0.2793188180478552  0.6666326892190284  1.0000
  H   H58       1.0  0.7989330144135423  0.7206808355870677  0.8333672357176027  1.0000
  H   H59       1.0  0.7010666791302711  0.7206810560476455  0.3333671463095982  1.0000
  H   H60       1.0  0.2010663650625446  0.2793190385084329  0.16663259981106654  1.0000
  H   H61       1.0  0.5899167841121694  0.14255497163601658  0.9236502118315074  1.0000
  H   H62       1.0  0.08991764064551688  0.8574446799770712  0.5763502035134566  1.0000
  H   H63       1.0  0.41008370443253034  0.8574449029527643  0.0763500979251788  1.0000
  H   H64       1.0  0.9100828478992965  0.14255592387657862  0.4236496538112462  1.0000
  H   H65       1.0  0.4335647039646701  0.18950484147983812  0.968693872909114  1.0000
  H   H66       1.0  0.9335651502607973  0.8104955440265444  0.531306537629611  1.0000
  H   H67       1.0  0.5664357845800437  0.8104957628670916  0.031306458643648206  1.0000
  H   H68       1.0  0.066435338284009  0.18950433006896358  0.4686932978990158  1.0000
  H   H69       1.0  0.5944584149940582  0.2634094343138074  0.9608820351721904  1.0000
  H   H70       1.0  0.0944581734897838  0.7365909471120703  0.5391184016173156  1.0000
  H   H71       1.0  0.40554207355064875  0.7365911700331154  0.03911829638057181  1.0000
  H   H72       1.0  0.9055423150549303  0.2634096572348597  0.4608819299354466  1.0000
  C   C1        1.0  0.30462559753595286  0.6490916172984882  0.4784010681412811  1.0000
  C   C2        1.0  0.8046249205478587  0.35090920875514087  0.021599165986877705  1.0000
  C   C3        1.0  0.6953737819400274  0.3509082572902784  0.5215992416154478  1.0000
  C   C4        1.0  0.19537445892813568  0.6490913955917749  0.9784011655659272  1.0000
  C   C5        1.0  0.29883846391563657  0.5980711097264191  0.5349180777883619  1.0000
  C   C6        1.0  0.7988387091617852  0.4019292736655089  0.9650818689516782  1.0000
  C   C7        1.0  0.7011609155604502  0.4019287643690744  0.46508175774030763  1.0000
  C   C8        1.0  0.20116067031420928  0.5980713306814067  0.03491846260112651  1.0000
  C   C9        1.0  0.40673531248202005  0.6071137087575806  0.5858592703786414  1.0000
  C   C10       1.0  0.9067344699933597  0.3928859461745233  0.9141406462128999  1.0000
  C   C11       1.0  0.5932640669939531  0.392885436073037  0.4141410175820114  1.0000
  C   C12       1.0  0.09326601855143929  0.6071139279209775  0.0858591893157268  1.0000
  C   C13       1.0  0.35839654128804443  0.5495419136306694  0.6328215366664837  1.0000
  C   C14       1.0  0.8583968301671517  0.45045847047792625  0.8671784054630721  1.0000
  C   C15       1.0  0.6416028381880423  0.4504579604648243  0.36717829886218584  1.0000
  C   C16       1.0  0.1416025493089492  0.5495421333757236  0.1328214518616733  1.0000
  C   C17       1.0  0.22061582918841788  0.5053923224114384  0.6112037270528178  1.0000
  C   C18       1.0  0.7206161106237161  0.4946080595459606  0.8887957515145005  1.0000
  C   C19       1.0  0.779383550287676  0.49460828144220415  0.38879613027192766  1.0000
  C   C20       1.0  0.27938437792118254  0.5053918140562743  0.1112036097860667  1.0000
  C   C21       1.0  0.13724490686806937  0.43947855665847163  0.6458893680135418  1.0000
  C   C22       1.0  0.6372452057069607  0.5605210950308432  0.8541105694396409  1.0000
  C   C23       1.0  0.8627544726079108  0.5605213179303022  0.354110941743187  1.0000
  C   C24       1.0  0.36275528283793784  0.4394787785713845  0.14588879186092643  1.0000
  C   C25       1.0  0.0028790168779550995  0.3953918409456278  0.6264899092958347  1.0000
  C   C26       1.0  0.5028804182839153  0.6046085388850101  0.8735100603548531  1.0000
  C   C27       1.0  0.9971203625980251  0.6046080336431459  0.3735104004608943  1.0000
  C   C28       1.0  0.4971200702608982  0.3953920649686467  0.12648979696984952  1.0000
  C   C29       1.0  0.9147930152022924  0.33224815872051033  0.6646849126138363  1.0000
  C   C30       1.0  0.41479153573578026  0.6677522260667033  0.8353150251500453  1.0000
  C   C31       1.0  0.08520747334250699  0.6677517153749976  0.3353149229147904  1.0000
  C   C32       1.0  0.585206734671587  0.3322476480287833  0.16468481037866672  1.0000
  C   C33       1.0  0.7908490475759606  0.3078419350823581  0.6300971322154966  1.0000
  C   C34       1.0  0.2908486634221815  0.6921577189485575  0.8699032675750261  1.0000
  C   C35       1.0  0.20915144096873917  0.6921579395064231  0.3699031775411896  1.0000
  C   C36       1.0  0.709150716053905  0.307842155146936  0.13009656795364322  1.0000
  C   C37       1.0  0.8031830144699937  0.3553883784046903  0.5702706784991349  1.0000
  C   C38       1.0  0.3031826029389251  0.6446120050395124  0.9297292679046195  1.0000
  C   C39       1.0  0.19681747407471306  0.6446114961840833  0.4297296312575511  1.0000
  C   C40       1.0  0.6968167765371689  0.35538859881413737  0.07027058942012591  1.0000
  C   C41       1.0  0.4321529762427473  0.7158066989429841  0.46973668182950956  1.0000
  C   C42       1.0  0.9321522929009234  0.284192669128899  0.030263498834401003  1.0000
  C   C43       1.0  0.5678464032331192  0.2841917166227574  0.5302640585631337  1.0000
  C   C44       1.0  0.067848195643883  0.7158072049666087  0.9697363366942255  1.0000
  C   C45       1.0  0.5781164011965885  0.6806242471136911  0.4658002750924625  1.0000
  C   C46       1.0  0.07811614512902308  0.31937584645618955  0.034199954774038616  1.0000
  C   C47       1.0  0.4218829782793847  0.3193748977169265  0.5342000128681903  1.0000
  C   C48       1.0  0.9218843434156768  0.6806240281325913  0.9658003549826475  1.0000
  C   C49       1.0  0.6955900724103897  0.743543695386478  0.45476289646958895  1.0000
  C   C50       1.0  0.1955898091300554  0.25645639959697064  0.0452373243030948  1.0000
  C   C51       1.0  0.3044093070655833  0.25645544944413967  0.545237391491071  1.0000
  C   C52       1.0  0.804410679414751  0.7435434744985303  0.9547625112255318  1.0000
  C   C53       1.0  0.6690278799256077  0.8434899442279471  0.4486587983199399  1.0000
  C   C54       1.0  0.16902761005533756  0.15651014944933192  0.05134047605283601  1.0000
  C   C55       1.0  0.33097260861919847  0.15650992986755338  0.5513410372086867  1.0000
  C   C56       1.0  0.8309728784895611  0.8434897241528958  0.948658885247731  1.0000
  C   C57       1.0  0.5239162192714133  0.8797307479877005  0.45492627580767936  1.0000
  C   C58       1.0  0.023915950623184298  0.12026934492998718  0.04507395825454811  1.0000
  C   C59       1.0  0.47608316020465935  0.12026839634964402  0.5450735379249211  1.0000
  C   C60       1.0  0.9760834288527961  0.8797305296587865  0.9549263515021807  1.0000
  C   C61       1.0  0.4069693558997614  0.8164600085419876  0.46498481859543267  1.0000
  C   C62       1.0  0.9069697755842937  0.18354008849173914  0.03501491158595371  1.0000
  C   C63       1.0  0.5930300235763184  0.18353913579535694  0.5350149951371606  1.0000
  C   C64       1.0  0.09303071296051259  0.816460515361911  0.964984945738749  1.0000
  C   C65       1.0  0.7893352221157882  0.9138032812972339  0.4364191425924562  1.0000
  C   C66       1.0  0.2893349442253879  0.086195354804687  0.0635805531030584  1.0000
  C   C67       1.0  0.21066526642898245  0.08619440352381959  0.5635806275479567  1.0000
  C   C68       1.0  0.710664435250699  0.9138045192908066  0.936419282425611  1.0000
  C   C69       1.0  0.0356010392972266  0.9332886587495892  0.3999238345774928  1.0000
  C   C70       1.0  0.5356014266088777  0.06671143381543489  0.10007592435211171  1.0000
  C   C71       1.0  0.9643983401788601  0.0667112153459115  0.6000760009511837  1.0000
  C   C72       1.0  0.4643979528672091  0.9332884402800659  0.8999239111765577  1.0000
  C   C73       1.0  0.2005915710395811  0.41094317464850855  0.7078129702273517  1.0000
  C   C74       1.0  0.7005896792524169  0.5890557485381649  0.7921874147541318  1.0000
  C   C75       1.0  0.7994100265737174  0.5890552409172471  0.29218777016520653  1.0000
  C   C76       1.0  0.2994097002236771  0.4109448553154778  0.20781244257060652  1.0000
  C   C77       1.0  0.1809233356655255  0.4689495926504677  0.7636925798394644  1.0000
  C   C78       1.0  0.6809225744292391  0.5310500600577016  0.7363078284605962  1.0000
  C   C79       1.0  0.8190771528791742  0.5310502819383133  0.23630772991722182  1.0000
  C   C80       1.0  0.3190768050468477  0.46894981403779923  0.2636920070680731  1.0000
  C   C81       1.0  0.2401841916774998  0.440215220914574  0.8209245369915906  1.0000
  C   C82       1.0  0.7401834559624588  0.5597844329999547  0.6790763409490596  1.0000
  C   C83       1.0  0.7598162968671004  0.5597846541674799  0.1790762469931551  1.0000
  C   C84       1.0  0.259817032582248  0.4402154415888191  0.3209239688076337  1.0000
  C   C85       1.0  0.32259021338140303  0.3537975476180649  0.822828086706636  1.0000
  C   C86       1.0  0.822590590996235  0.646202836552945  0.6771723324227992  1.0000
  C   C87       1.0  0.6774091660945841  0.6462023269707018  0.17717222305009275  1.0000
  C   C88       1.0  0.177409897548479  0.35379776779398503  0.3228279991299631  1.0000
  C   C89       1.0  0.3444044967536257  0.2961369106872739  0.7668393028793405  1.0000
  C   C90       1.0  0.8444037437571764  0.7038627444813418  0.7331615669934523  1.0000
  C   C91       1.0  0.6555959917909604  0.7038622346366238  0.23316145930933632  1.0000
  C   C92       1.0  0.15559674478753746  0.2961378598655814  0.2668387645593101  1.0000
  C   C93       1.0  0.2829266122658751  0.32425586227085285  0.7100655491271867  1.0000
  C   C94       1.0  0.7829269430365996  0.67574306190658  0.7899348294805295  1.0000
  C   C95       1.0  0.7170727672100908  0.6757425528016157  0.28993471703739715  1.0000
  C   C96       1.0  0.21707243643939478  0.3242575424403357  0.21006550207227556  1.0000
  C   C97       1.0  0.38314756976676984  0.3247985531123446  0.8845301366309785  1.0000
  C   C98       1.0  0.8831468657484294  0.6752018322806281  0.6154707520387177  1.0000
  C   C99       1.0  0.6168529187780293  0.6752013209831631  0.11546969889764822  1.0000
  C   C100      1.0  0.11685362279617807  0.3247987725595678  0.384530053742104  1.0000
  C   C101      1.0  0.5249320101302288  0.2075248672163212  0.9370633477471699  1.0000
  C   C102      1.0  0.024932869781984796  0.792475513372949  0.5629370944244414  1.0000
  C   C103      1.0  0.4750673693457513  0.7924750073724455  0.0629369620095588  1.0000
  C   C104      1.0  0.9750676187627221  0.20752509097398078  0.4370632371283207  1.0000
  N   N1        1.0  0.187012169408284  0.5360581156427102  0.5516858934296069  1.0000
  N   N2        1.0  0.6870124242714012  0.4639422668968792  0.9483145361951487  1.0000
  N   N3        1.0  0.8129872100677031  0.4639417589460635  0.4483144163271221  1.0000
  N   N4        1.0  0.3129869552045932  0.5360583374500365  0.05168579535765622  1.0000
  N   N5        1.0  0.9329418374787719  0.4078007835606314  0.5694569743145338  1.0000
  N   N6        1.0  0.43294253257714377  0.5921996019382478  0.9305434362723946  1.0000
  N   N7        1.0  0.06705754199721528  0.5921990910281354  0.430543335442195  1.0000
  N   N8        1.0  0.56705795596757  0.4078010024086752  0.0694568952803678  1.0000
  O   O1        1.0  0.7795742881011661  0.0026480327094376005  0.4460174177102374  1.0000
  O   O2        1.0  0.27957515974646435  0.9973527925494852  0.05398234412906081  1.0000
  O   O3        1.0  0.22042509137494898  0.9973540306605103  0.553982483206653  1.0000
  O   O4        1.0  0.7204253287983419  0.0026470815460158006  0.9460174913995658  1.0000
  O   O5        1.0  0.9131239311501174  0.8692582324135145  0.4127518167953924  1.0000
  O   O6        1.0  0.413123644958759  0.1307411349361161  0.08724789111351332  1.0000
  O   O7        1.0  0.0868765573946817  0.1307416416819933  0.5872480187332344  1.0000
  O   O8        1.0  0.5868757345173278  0.8692587391593778  0.9127519444151562  1.0000
  O   O9        1.0  0.3596652477867224  0.3688315297332707  0.9357519786263425  1.0000
  O   O10       1.0  0.8596645638249781  0.6311688543905872  0.5642479634050375  1.0000
  O   O11       1.0  0.6403352407579844  0.6311690746136593  0.06424835292641971  1.0000
  O   O12       1.0  0.1403370337884411  0.3688310201981935  0.4357523463516061  1.0000
  O   O13       1.0  0.46608705528450395  0.24288029362905664  0.8785865881911549  1.0000
  O   O14       1.0  0.9660885701430499  0.7571200927619443  0.6214142940579848  1.0000
  O   O15       1.0  0.5339112151226715  0.7571203112111249  0.12141421758975213  1.0000
  O   O16       1.0  0.0339119184016567  0.24288051158498555  0.3785860374947775  1.0000
