data_image0
_chemical_formula_structural       Ni2H16C24N4O8
_chemical_formula_sum              "Ni2 H16 C24 N4 O8"
_cell_length_a       6.128963198735148
_cell_length_b       11.146275999415145
_cell_length_c       12.203871655710298
_cell_angle_alpha    90.00020990840429
_cell_angle_beta     89.99868633385296
_cell_angle_gamma    89.9998733245722

_space_group_name_H-M_alt    "P 1"
_space_group_IT_number       1

loop_
  _space_group_symop_operation_xyz
  'x, y, z'

loop_
  _atom_site_type_symbol
  _atom_site_label
  _atom_site_symmetry_multiplicity
  _atom_site_fract_x
  _atom_site_fract_y
  _atom_site_fract_z
  _atom_site_occupancy
  Ni  Ni1       1.0  1.1149756908e-05  0.9619984727426854  0.5000047319340339  1.0000
  Ni  Ni2       1.0  0.4999992434765659  0.46198633331759714  2.8340873328000018e-06  1.0000
  H   H1        1.0  0.032456525542535496  0.32981682976929966  0.7458395158815281  1.0000
  H   H2        1.0  0.9675401595278501  0.329823693705606  0.2541700971243799  1.0000
  H   H3        1.0  0.4675622537073068  0.8298403042652042  0.245831676445583  1.0000
  H   H4        1.0  0.532453746158815  0.8298319787937131  0.7541530656910851  1.0000
  H   H5        1.0  0.1597457250100263  0.18347645239892774  0.6030066829176022  1.0000
  H   H6        1.0  0.8402661211660244  0.18346990123330909  0.39699454083309144  1.0000
  H   H7        1.0  0.34025210936800926  0.6834884091373752  0.103012341947597  1.0000
  H   H8        1.0  0.6597496807232586  0.6834923955978384  0.8969877735680427  1.0000
  H   H9        1.0  0.577362748235096  0.9937184007822067  0.6172668958514933  1.0000
  H   H10       1.0  0.42265800310966734  0.9937333127777279  0.38273383033253344  1.0000
  H   H11       1.0  0.9226411504614376  0.4937221465565002  0.1172763527420955  1.0000
  H   H12       1.0  0.0773635508670836  0.4937238251159713  0.8827344950936009  1.0000
  H   H13       1.0  0.42583323572096526  0.13434899268575148  0.7588206045563767  1.0000
  H   H14       1.0  0.5741695175157346  0.13436275779586276  0.24117508704397753  1.0000
  H   H15       1.0  0.0741517275049119  0.6343469797048088  0.2588382502298074  1.0000
  H   H16       1.0  0.9258295462130519  0.6343498780230447  0.7411759985868542  1.0000
  C   C1        1.0  0.6292759675555785  0.32892405251242  0.8458235730125949  1.0000
  C   C2        1.0  0.3706913330168717  0.3289302243168279  0.1541720984609398  1.0000
  C   C3        1.0  0.8707110910105057  0.828942937038363  0.3458307430395706  1.0000
  C   C4        1.0  0.1292967327919712  0.8289323332744231  0.6541646401007526  1.0000
  C   C5        1.0  0.7161245931276596  0.24416743382862907  0.7612746296845218  1.0000
  C   C6        1.0  0.2838769878330965  0.244177313362158  0.23872735467715964  1.0000
  C   C7        1.0  0.7838729174368025  0.7441637034042332  0.26127900881170524  1.0000
  C   C8        1.0  0.21613166008519608  0.7441625623732406  0.7387177700709061  1.0000
  C   C9        1.0  0.926074435144521  0.257818819025438  0.7179744467188415  1.0000
  C   C10       1.0  0.07393230048406  0.25782562895809497  0.2820285281835169  1.0000
  C   C11       1.0  0.5739197652823194  0.7578266768063313  0.21797569884189022  1.0000
  C   C12       1.0  0.4260948622127998  0.7578297932138724  0.7820196125918386  1.0000
  C   C13       1.0  0.9978612638465236  0.1766114080095775  0.6395553765441946  1.0000
  C   C14       1.0  0.002143925297140499  0.17662274257489227  0.36044658061725704  1.0000
  C   C15       1.0  0.5021390816196457  0.676618956515874  0.139555818585464  1.0000
  C   C16       1.0  0.4978527878883766  0.6766200388812605  0.860445849530464  1.0000
  C   C17       1.0  0.6720459422310582  0.07008565869106322  0.6465709144055367  1.0000
  C   C18       1.0  0.32797842895813994  0.07009437399460691  0.35342970789726996  1.0000
  C   C19       1.0  0.8279608907055402  0.5700788757260824  0.1465844883261198  1.0000
  C   C20       1.0  0.172030581046414  0.5700862643013663  0.8534207610578122  1.0000
  C   C21       1.0  0.5883174306780248  0.14813331917953576  0.7249005133237674  1.0000
  C   C22       1.0  0.41168884715205684  0.1481472802503987  0.2751076422546461  1.0000
  C   C23       1.0  0.9116717934066684  0.6481437938349258  0.22490205778504452  1.0000
  C   C24       1.0  0.0883064808916743  0.648145239127544  0.775100892131114  1.0000
  N   N1        1.0  0.873563614273344  0.08456964027974581  0.6041851048473178  1.0000
  N   N2        1.0  0.1264463485854463  0.0845770177411964  0.39581324057132866  1.0000
  N   N3        1.0  0.6264250748401777  0.5845707879069766  0.10418836827398081  1.0000
  N   N4        1.0  0.37356667317685316  0.5845762291291834  0.8958137850759371  1.0000
  O   O1        1.0  0.7548948854867772  0.41091312109725925  0.8837282383141343  1.0000
  O   O2        1.0  0.24507887076100593  0.41092596999402536  0.11627501611926763  1.0000
  O   O3        1.0  0.7450836009938797  0.9109285487078437  0.3837128907813252  1.0000
  O   O4        1.0  0.2549143634711015  0.910915387085481  0.6162777838511105  1.0000
  O   O5        1.0  0.43336046258393424  0.317111825861808  0.8786346325963948  1.0000
  O   O6        1.0  0.5665902984055506  0.3171031656470902  0.1213445023150115  1.0000
  O   O7        1.0  0.0666242070961971  0.8171053887764327  0.3786373579529894  1.0000
  O   O8        1.0  0.9333817599118532  0.8170965040031604  0.6213554185837893  1.0000
