data_image0
_chemical_formula_structural       Zn4H11C23Br5O16
_chemical_formula_sum              "Zn4 H11 C23 Br5 O16"
_cell_length_a       13.066545667861602
_cell_length_b       13.122090497753517
_cell_length_c       16.070649114868715
_cell_angle_alpha    79.29216188372966
_cell_angle_beta     80.58257861187857
_cell_angle_gamma    89.23448847457595

_space_group_name_H-M_alt    "P 1"
_space_group_IT_number       1

loop_
  _space_group_symop_operation_xyz
  'x, y, z'

loop_
  _atom_site_type_symbol
  _atom_site_label
  _atom_site_symmetry_multiplicity
  _atom_site_fract_x
  _atom_site_fract_y
  _atom_site_fract_z
  _atom_site_occupancy
  Zn  Zn1       1.0  0.43413681707421864  0.41509696740343555  0.43736443731426505  1.0000
  Zn  Zn2       1.0  0.5895588703356437  0.41996317076777945  0.5739265712484851  1.0000
  Zn  Zn3       1.0  0.39034596424791346  0.5666619999472217  0.5706413178146406  1.0000
  Zn  Zn4       1.0  0.5857403870273926  0.6072285148311918  0.4120058999341295  1.0000
  H   H1        1.0  0.5629880916935973  0.6100169725405562  0.9657483142233827  1.0000
  H   H2        1.0  0.9288131396645342  0.6498504889582079  0.3040738615352223  1.0000
  H   H3        1.0  0.99756763577696  0.7430889324814698  0.3442664220384514  1.0000
  H   H4        1.0  0.06334440278890699  0.4898673628912389  0.5666666718743796  1.0000
  H   H5        1.0  0.41707422023424096  0.2797723528945966  0.9710486888035201  1.0000
  H   H6        1.0  0.30342799788368074  0.35872714346630363  0.9729497497966615  1.0000
  H   H7        1.0  0.3237391536433805  0.2692052401913684  0.06781750032474315  1.0000
  H   H8        1.0  0.12842276772887118  0.3810446962507611  0.2616539808840272  1.0000
  H   H9        1.0  0.0193526212676289  0.4559658189951747  0.29685059609951026  1.0000
  H   H10       1.0  0.016180487894146695  0.3174659285527567  0.3307994503292732  1.0000
  H   H11       1.0  0.8584972205293794  0.730357074081297  0.37156383880388666  1.0000
  C   C1        1.0  0.7783089020530127  0.5259630157518415  0.4701417081670342  1.0000
  C   C2        1.0  0.4608631766400037  0.9350376336349127  0.5547390125045338  1.0000
  C   C3        1.0  0.5390316244678104  0.11207674149240887  0.5346994437044186  1.0000
  C   C4        1.0  0.22368981434392046  0.4673424563757534  0.513605341373477  1.0000
  C   C5        1.0  0.456376589758669  0.04724063931573848  0.5507118042992118  1.0000
  C   C6        1.0  0.5344108872455492  0.22823577101031833  0.5239422836830343  1.0000
  C   C7        1.0  0.47572470289573926  0.7748160339813591  0.48622322519981487  1.0000
  C   C8        1.0  0.47771001023870246  0.4861224048454956  0.7288609581752039  1.0000
  C   C9        1.0  0.5227850684547093  0.5335342169503078  0.2672145123575404  1.0000
  C   C10       1.0  0.47198055278416007  0.4831271988262882  0.82002872917338  1.0000
  C   C11       1.0  0.46847307242386194  0.4757846416849815  0.9853485245250013  1.0000
  C   C12       1.0  0.5238212269195444  0.5463304711847455  0.10062266802785295  1.0000
  C   C13       1.0  0.5213973255503959  0.548631942593367  0.013974477020710207  1.0000
  C   C14       1.0  0.3617159967191057  0.32224540103316457  0.010607086452104397  1.0000
  C   C15       1.0  0.06595623320500721  0.38750177065987396  0.3147670559845253  1.0000
  C   C16       1.0  0.9311694957363199  0.6889853391114966  0.3585793069970221  1.0000
  C   C17       1.0  0.4697522491911599  0.47998902361504736  0.896540258855303  1.0000
  C   C18       1.0  0.5257982373411351  0.5438416415048122  0.176789761407818  1.0000
  C   C19       1.0  0.11218948886681089  0.46207618568378445  0.5143160140923653  1.0000
  C   C20       1.0  0.06409701538781577  0.4317787859155046  0.4535887873161356  1.0000
  C   C21       1.0  0.8953047229569151  0.5229480171931867  0.4543678185311675  1.0000
  C   C22       1.0  0.9495879539667555  0.43420503175855873  0.46461527286422194  1.0000
  C   C23       1.0  0.46888567222114125  0.889405760413865  0.48565759541394715  1.0000
  Br  Br1       1.0  0.4755154717334947  0.9715782162132313  0.3745916786589872  1.0000
  Br  Br2       1.0  0.8842673293107807  0.30036535695250416  0.49815148005319526  1.0000
  Br  Br3       1.0  0.3186316828736295  0.09739612639725684  0.5728155060905633  1.0000
  Br  Br4       1.0  0.45491749043058854  0.8548162454424995  0.6674143874207201  1.0000
  Br  Br5       1.0  0.6751466338296126  0.05914176839215909  0.5205908387714471  1.0000
  O   O1        1.0  0.5022798946499947  0.5033469893419777  0.5002283709573233  1.0000
  O   O2        1.0  0.547191291247607  0.4298642056837493  0.6957697666264477  1.0000
  O   O3        1.0  0.5648363430579052  0.6062889718972782  0.29435557072496  1.0000
  O   O4        1.0  0.41328760549939153  0.5440876359791389  0.6920683761777011  1.0000
  O   O5        1.0  0.47764054426182406  0.45129901533000794  0.31330184438030517  1.0000
  O   O6        1.0  0.4145479248735811  0.3985144823010385  0.042864514724769286  1.0000
  O   O7        1.0  0.11783956347615289  0.3978692679029193  0.38524179556052457  1.0000
  O   O8        1.0  0.9495268110213927  0.6151950424488816  0.43334580122259314  1.0000
  O   O9        1.0  0.4816713651942237  0.2715624209384798  0.4682353043846133  1.0000
  O   O10       1.0  0.5552175904281852  0.7460579655046969  0.4399467599237496  1.0000
  O   O11       1.0  0.7330243408045264  0.47430582372768965  0.5410794362521825  1.0000
  O   O12       1.0  0.25218443162532367  0.5177783280346799  0.5679350709066567  1.0000
  O   O13       1.0  0.7360388264433124  0.581283472120802  0.4116292346850514  1.0000
  O   O14       1.0  0.2846947860445681  0.423131028968278  0.4609365993474412  1.0000
  O   O15       1.0  0.5844853539954187  0.27086100757577464  0.5702313050939762  1.0000
  O   O16       1.0  0.4011223770146515  0.7192841171475804  0.5319646750163256  1.0000
