data_image0
_chemical_formula_structural       Mn2H24C20N12O16
_chemical_formula_sum              "Mn2 H24 C20 N12 O16"
_cell_length_a       7.326477503228718
_cell_length_b       11.851014283522902
_cell_length_c       13.328600904980409
_cell_angle_alpha    116.059832683085
_cell_angle_beta     86.94184560382568
_cell_angle_gamma    90.01648059432529

_space_group_name_H-M_alt    "P 1"
_space_group_IT_number       1

loop_
  _space_group_symop_operation_xyz
  'x, y, z'

loop_
  _atom_site_type_symbol
  _atom_site_label
  _atom_site_symmetry_multiplicity
  _atom_site_fract_x
  _atom_site_fract_y
  _atom_site_fract_z
  _atom_site_occupancy
  Mn  Mn1       1.0  0.4998585420447127  0.5000779849942348  0.5000347810001031  1.0000
  Mn  Mn2       1.0  0.9963960911469412  0.9997058413488346  0.5000399554456578  1.0000
  H   H1        1.0  0.44995523398037546  0.2904787266677858  0.5793868381945728  1.0000
  H   H2        1.0  0.053681575201402175  0.709990305197543  0.4201497982265678  1.0000
  H   H3        1.0  0.5498832357825447  0.709537850355666  0.42065268752676843  1.0000
  H   H4        1.0  0.9511715764607515  0.2898661148675785  0.5793184665743141  1.0000
  H   H5        1.0  0.45298218033807547  0.2687469651169038  0.7569801530687315  1.0000
  H   H6        1.0  0.04400932660502118  0.5112768726601259  0.24350611327813  1.0000
  H   H7        1.0  0.5469399543780893  0.7312655589059034  0.24303306193147733  1.0000
  H   H8        1.0  0.9535838177197673  0.48845003385059027  0.7565378903526963  1.0000
  H   H9        1.0  0.5380332822329803  0.668047964670251  0.9303138748574895  1.0000
  H   H10       1.0  0.9588551952612289  0.7368632930501704  0.06812281965315496  1.0000
  H   H11       1.0  0.46193719966152  0.33196030187699677  0.06971004510759832  1.0000
  H   H12       1.0  0.0402228637872426  0.26320601529886284  0.9320667346986227  1.0000
  H   H13       1.0  0.531000336677991  0.6742959822744865  0.7445212021842097  1.0000
  H   H14       1.0  0.9720200883218907  0.9279802209170427  0.25306553575160257  1.0000
  H   H15       1.0  0.4689618966306809  0.3257170836206313  0.2555046400982945  1.0000
  H   H16       1.0  0.0325915074148142  0.0720505659890662  0.7466395009897083  1.0000
  H   H17       1.0  0.3943659282342508  0.7519362333741951  0.5942389829934243  1.0000
  H   H18       1.0  0.10595057189541279  0.1577747259030886  0.40444508723951594  1.0000
  H   H19       1.0  0.6056128239421241  0.24822092578085628  0.4057979985559967  1.0000
  H   H20       1.0  0.8934134321838268  0.8425373563668614  0.5955135443178109  1.0000
  H   H21       1.0  0.2116818227758799  0.6792109821988249  0.5977083777959038  1.0000
  H   H22       1.0  0.2873662872951641  0.08106110550997411  0.4008146592331627  1.0000
  H   H23       1.0  0.7882432038892802  0.3210735452542153  0.40236468090454036  1.0000
  H   H24       1.0  0.7097702580440739  0.9179886183978141  0.5995592161808079  1.0000
  C   C1        1.0  0.46980490215577914  0.3720356564601062  0.6583517917904729  1.0000
  C   C2        1.0  0.03184536519902539  0.712533276490838  0.34095051677413585  1.0000
  C   C3        1.0  0.5301302863418016  0.6279852188441453  0.341672040148417  1.0000
  C   C4        1.0  0.9707360096885791  0.2872818581204726  0.6587451499377367  1.0000
  C   C5        1.0  0.47085340291944516  0.36010247748277646  0.7573611078402749  1.0000
  C   C6        1.0  0.02698138229629879  0.6019985502910428  0.2425619071021288  1.0000
  C   C7        1.0  0.5291089977920578  0.6399190100565518  0.24266422732037538  1.0000
  C   C8        1.0  0.9712480939848899  0.3977730039345246  0.7574908297069953  1.0000
  C   C9        1.0  0.4944409598660116  0.46725667897028705  0.8578560223698943  1.0000
  C   C10       1.0  0.0027566029477980943  0.6092621070192337  0.14209234689497668  1.0000
  C   C11       1.0  0.5055591682883785  0.5327606473431743  0.1421756415105833  1.0000
  C   C12       1.0  0.995383845443875  0.39055263919362915  0.8579545420575696  1.0000
  C   C13       1.0  0.5184256794871658  0.5832879500378141  0.8538841980220508  1.0000
  C   C14       1.0  0.979527425712838  0.7284368012188196  0.14481721253007862  1.0000
  C   C15       1.0  0.4815490150015052  0.4167193126729671  0.1461377967911517  1.0000
  C   C16       1.0  0.019541185754164282  0.27148875982347687  0.8552982062677897  1.0000
  C   C17       1.0  0.5155824943460415  0.5865844734410288  0.751620569696712  1.0000
  C   C18       1.0  0.9858073662988928  0.8334334828328593  0.24656022069791572  1.0000
  C   C19       1.0  0.48438513108833087  0.41342571935474137  0.24840561952521514  1.0000
  C   C20       1.0  0.016948187002476803  0.16652467054174022  0.7532559329778933  1.0000
  N   N1        1.0  0.4912793829076774  0.4832105858121238  0.6545909060435875  1.0000
  N   N2        1.0  0.01356898042968169  0.8268575105219825  0.34348620671241303  1.0000
  N   N3        1.0  0.5086705851851291  0.5168045055348004  0.34543507240758237  1.0000
  N   N4        1.0  0.9938275695549945  0.173195558834216  0.6559301206282554  1.0000
  N   N5        1.0  0.49141848206040334  0.44939072070582853  0.9551864019562756  1.0000
  N   N6        1.0  0.003034029056550498  0.4941164854156739  0.04509439809466193  1.0000
  N   N7        1.0  0.5085934371235865  0.5506349605954028  0.04485438953989272  1.0000
  N   N8        1.0  0.9947389528787838  0.5057778826680489  0.9549736064086217  1.0000
  N   N9        1.0  0.8747901348037672  0.629760574930323  0.5923667458380706  1.0000
  N   N10       1.0  0.6254021965905208  0.037853789134239  0.4071117491852903  1.0000
  N   N11       1.0  0.12517947042650227  0.3707037217766215  0.40765513858423225  1.0000
  N   N12       1.0  0.37399219415081564  0.9620108783384821  0.5929180587254663  1.0000
  O   O1        1.0  0.7250641667752828  0.6377061833363626  0.5503606201455256  1.0000
  O   O2        1.0  0.7745136264407434  0.0880401079859112  0.4498127459343523  1.0000
  O   O3        1.0  0.274820071785328  0.36243950949096865  0.44961869434165896  1.0000
  O   O4        1.0  0.22386673429003418  0.9130405120538896  0.5516401035440099  1.0000
  O   O5        1.0  0.9122018761700444  0.5393982772011015  0.6115683146953472  1.0000
  O   O6        1.0  0.5892889094465231  0.9281718824481544  0.3874669762509768  1.0000
  O   O7        1.0  0.08820264366318746  0.4612103473141573  0.3885550452502216  1.0000
  O   O8        1.0  0.41240103040796317  0.07117908821604149  0.6119424610080912  1.0000
  O   O9        1.0  0.9854989565702466  0.7205243996769964  0.6142002314303028  1.0000
  O   O10       1.0  0.5145019906928281  0.1066499737319759  0.3850986849474011  1.0000
  O   O11       1.0  0.014166027828061093  0.28013802331170007  0.38577005805119313  1.0000
  O   O12       1.0  0.48472230171352476  0.8924549425376681  0.6145111463170495  1.0000
  O   O13       1.0  0.34727154500588137  0.6700525573255264  0.5875755686030716  1.0000
  O   O14       1.0  0.1518452400935146  0.081941342628177  0.4103185927348392  1.0000
  O   O15       1.0  0.6525951879119988  0.3300375122239529  0.4124470120627706  1.0000
  O   O16       1.0  0.8454401331021371  0.9180195856596072  0.5897079609050948  1.0000
