data_image0
_chemical_formula_structural       Cu4H16C20O16
_chemical_formula_sum              "Cu4 H16 C20 O16"
_cell_length_a       6.858236856215599
_cell_length_b       6.858375482199858
_cell_length_c       11.855705520614428
_cell_angle_alpha    89.97834594656526
_cell_angle_beta     90.02011172780422
_cell_angle_gamma    89.97610831423775

_space_group_name_H-M_alt    "P 1"
_space_group_IT_number       1

loop_
  _space_group_symop_operation_xyz
  'x, y, z'

loop_
  _atom_site_type_symbol
  _atom_site_label
  _atom_site_symmetry_multiplicity
  _atom_site_fract_x
  _atom_site_fract_y
  _atom_site_fract_z
  _atom_site_occupancy
  Cu  Cu1       1.0  0.27330275901851314  0.7265853828052969  0.24993123461592154  1.0000
  Cu  Cu2       1.0  0.7265835449352452  0.27330501832933146  0.7500740563480689  1.0000
  Cu  Cu3       1.0  0.7730548192168172  0.7730513521180101  0.4999971495769415  1.0000
  Cu  Cu4       1.0  0.2271043299438418  0.22710848928243618  2.451874756599997e-06  1.0000
  H   H1        1.0  0.8225269856788915  0.2646590321206901  0.1230854677593953  1.0000
  H   H2        1.0  0.17729183365138826  0.7355715423704081  0.6229542856406596  1.0000
  H   H3        1.0  0.23505126591106063  0.3215378535439157  0.3729272105704524  1.0000
  H   H4        1.0  0.7647600396728367  0.6783839124898565  0.8729478818421441  1.0000
  H   H5        1.0  0.6783912445427163  0.7647625139601291  0.1270531216003192  1.0000
  H   H6        1.0  0.32153798575258463  0.23504258577605705  0.6270655010648554  1.0000
  H   H7        1.0  0.2646536462528388  0.82252393650122  0.8769140840969668  1.0000
  H   H8        1.0  0.7355669161516759  0.1772916081726095  0.377045777333592  1.0000
  H   H9        1.0  0.9425091120280628  0.3807123329426645  0.24549945113729174  1.0000
  H   H10       1.0  0.0574793988695816  0.6193486787908357  0.7453667715222919  1.0000
  H   H11       1.0  0.1185182612355007  0.44189375350315174  0.4950616934206736  1.0000
  H   H12       1.0  0.8813036326690878  0.5579446732716633  0.9951320699680934  1.0000
  H   H13       1.0  0.5579451293391885  0.8813051412146395  0.0048723370546213  1.0000
  H   H14       1.0  0.44188896234595637  0.11849437197014367  0.5049309896780514  1.0000
  H   H15       1.0  0.38071214588608643  0.9425021171797852  0.7544991107082666  1.0000
  H   H16       1.0  0.6193445574543263  0.057487362158944705  0.2546376554818934  1.0000
  C   C1        1.0  0.456698432977042  0.3741439307799083  0.16577470863907  1.0000
  C   C2        1.0  0.5433822896710296  0.6258504506114163  0.6657682364164899  1.0000
  C   C3        1.0  0.12555823975782943  0.955998837561971  0.41582769694397836  1.0000
  C   C4        1.0  0.8744741663148473  0.0439695203063124  0.9158272117386447  1.0000
  C   C5        1.0  0.04397378002453681  0.874465213346319  0.0841728097428103  1.0000
  C   C6        1.0  0.9559821719422318  0.1255556959892203  0.5841651496395741  1.0000
  C   C7        1.0  0.3741359225651025  0.4567081449490047  0.8342335816352318  1.0000
  C   C8        1.0  0.6258533509597797  0.5433829516404955  0.3342315216933684  1.0000
  C   C9        1.0  0.8173898660830828  0.3027949116138586  0.2120395851349244  1.0000
  C   C10       1.0  0.1825698189509595  0.6973023161142038  0.7119035761366206  1.0000
  C   C11       1.0  0.19663320805611312  0.3166632038275097  0.4618539834938958  1.0000
  C   C12       1.0  0.8032518508756612  0.6832623001398873  0.9618873818153162  1.0000
  C   C13       1.0  0.6832718071420131  0.8032424963596015  0.0381166599894485  1.0000
  C   C14       1.0  0.31666239549063857  0.19662737565265334  0.538144125053698  1.0000
  C   C15       1.0  0.3027923696990271  0.8173919092868828  0.7879622404133428  1.0000
  C   C16       1.0  0.6972989910960194  0.18257010017880046  0.288100960700568  1.0000
  C   C17       1.0  0.6175577925678227  0.38242476998886593  0.250078007603733  1.0000
  C   C18       1.0  0.38242472481108086  0.6175589295557486  0.7499213786042063  1.0000
  C   C19       1.0  0.11691068820078951  0.11691464869171851  0.4999946569965985  1.0000
  C   C20       1.0  0.8829743967885052  0.8829536377739445  0.9999982007115946  1.0000
  O   O1        1.0  0.4735827923493048  0.2531859534187433  0.0850421859609938  1.0000
  O   O2        1.0  0.5264990479039541  0.746942273003988  0.5850097172566251  1.0000
  O   O3        1.0  0.2469262014495968  0.9728738243062692  0.3352770854484888  1.0000
  O   O4        1.0  0.7534879329324937  0.027146615603335495  0.8349846727169918  1.0000
  O   O5        1.0  0.0271457307831469  0.7534941239319155  0.16501051327863792  1.0000
  O   O6        1.0  0.9728614561898966  0.24691640923487776  0.6647189053383755  1.0000
  O   O7        1.0  0.2531721597022312  0.4735888252599382  0.9149610086505505  1.0000
  O   O8        1.0  0.7469559443587103  0.5264967103904185  0.41498585848367503  1.0000
  O   O9        1.0  0.3009548286470647  0.4766392078882263  0.17554098224797343  1.0000
  O   O10       1.0  0.6991901171541174  0.5234508460751996  0.6757392918166545  1.0000
  O   O11       1.0  0.023092077133910007  0.8002498322309465  0.4255925519323611  1.0000
  O   O12       1.0  0.9767289737784921  0.1997574007098208  0.9257692985993701  1.0000
  O   O13       1.0  0.19975337574902602  0.9767283928013909  0.0742379938434468  1.0000
  O   O14       1.0  0.800234620242108  0.023091831300256195  0.5743980840042795  1.0000
  O   O15       1.0  0.47664370878408857  0.3009649951653941  0.8244753143865539  1.0000
  O   O16       1.0  0.5234548255845723  0.6991864035815  0.3242608952770283  1.0000
