data_image0
_chemical_formula_structural       Zn4H40C52N16Cl8
_chemical_formula_sum              "Zn4 H40 C52 N16 Cl8"
_cell_length_a       5.184439877751673
_cell_length_b       12.264078357541115
_cell_length_c       21.64792522004731
_cell_angle_alpha    89.99979166202368
_cell_angle_beta     89.9999152388562
_cell_angle_gamma    100.64546886463947

_space_group_name_H-M_alt    "P 1"
_space_group_IT_number       1

loop_
  _space_group_symop_operation_xyz
  'x, y, z'

loop_
  _atom_site_type_symbol
  _atom_site_label
  _atom_site_symmetry_multiplicity
  _atom_site_fract_x
  _atom_site_fract_y
  _atom_site_fract_z
  _atom_site_occupancy
  Zn  Zn1       1.0  0.9122938274687443  0.3658676270238388  0.6474397856260339  1.0000
  Zn  Zn2       1.0  0.5877167126396544  0.1341277694947252  0.1474388212929156  1.0000
  Zn  Zn3       1.0  0.0877118993848711  0.6341375169970647  0.3525610608690073  1.0000
  Zn  Zn4       1.0  0.4122899390249089  0.86587073386405  0.85256063939471  1.0000
  H   H1        1.0  0.3597913895416056  0.5360836508261997  0.694414656065149  1.0000
  H   H2        1.0  0.14022892344084437  0.9639207279043378  0.19441714895890533  1.0000
  H   H3        1.0  0.6402294918050943  0.46391650021573144  0.3055838807419917  1.0000
  H   H4        1.0  0.8597698238215656  0.0360860821269355  0.8055790781554251  1.0000
  H   H5        1.0  0.9461475457847545  0.554808287478622  0.8625276333028751  1.0000
  H   H6        1.0  0.5538588607115287  0.9451970873620043  0.362521420952568  1.0000
  H   H7        1.0  0.05384414333010306  0.44518690885449524  0.137475060957243  1.0000
  H   H8        1.0  0.44614300991371175  0.054808059993654006  0.6374780397291175  1.0000
  H   H9        1.0  0.699691566404354  0.5479756789641003  0.7756625499173423  1.0000
  H   H10       1.0  0.8003116524478671  0.9520344657707156  0.2756590010382141  1.0000
  H   H11       1.0  0.3003235305784315  0.45202447706274995  0.2243387585190959  1.0000
  H   H12       1.0  0.1996939784564233  0.04797482827053301  0.7243363021961713  1.0000
  H   H13       1.0  0.2758172889620596  0.2344184181778886  0.8464674300755917  1.0000
  H   H14       1.0  0.2241872884997136  0.2655924802815264  0.34646198508975357  1.0000
  H   H15       1.0  0.7241704479506978  0.7655809314906534  0.15353387836690052  1.0000
  H   H16       1.0  0.7758166062164874  0.7344085154085391  0.6535374755958189  1.0000
  H   H17       1.0  0.95278021464096  0.2372769381533644  0.7615362950285771  1.0000
  H   H18       1.0  0.5472398691359572  0.262728429185934  0.2615336951077438  1.0000
  H   H19       1.0  0.0472112825366225  0.7627265581893001  0.2384640895328474  1.0000
  H   H20       1.0  0.4527652208380458  0.7372709055032659  0.7384662275173568  1.0000
  H   H21       1.0  0.6405334710437955  0.21813107355648503  0.9057608193455381  1.0000
  H   H22       1.0  0.8594547638541598  0.28187827636646995  0.4057608323972985  1.0000
  H   H23       1.0  0.35944462528277654  0.781868284436648  0.09424048909878022  1.0000
  H   H24       1.0  0.14055408637652525  0.7181252049902938  0.5942400140988653  1.0000
  H   H25       1.0  0.6599923296209766  0.3437700826601713  0.0781146267858546  1.0000
  H   H26       1.0  0.8399967040239531  0.15621503522187652  0.5781197466012458  1.0000
  H   H27       1.0  0.3399893525033875  0.6562242923500605  0.9218825242206208  1.0000
  H   H28       1.0  0.16001656079295395  0.8437809724511779  0.4218866431581816  1.0000
  H   H29       1.0  0.43022465953666966  0.43173598358942655  0.9967291722133851  1.0000
  H   H30       1.0  0.0697523520137224  0.06825810127062232  0.49672557895408437  1.0000
  H   H31       1.0  0.569749580553399  0.5682633777319026  0.0032725981697013  1.0000
  H   H32       1.0  0.930259351128889  0.9317387377459811  0.5032775772385563  1.0000
  H   H33       1.0  0.8503307652466177  0.13067601910764642  0.9885955976187616  1.0000
  H   H34       1.0  0.6496648368957096  0.3693161361727277  0.48859966782632824  1.0000
  H   H35       1.0  0.14966377680659104  0.8693125349066195  0.0114034011433972  1.0000
  H   H36       1.0  0.3503316158126212  0.6306898458497515  0.5113984070414261  1.0000
  H   H37       1.0  0.10967702589123719  0.0517192700116027  0.0670566983944525  1.0000
  H   H38       1.0  0.390326730477824  0.44826871501428667  0.5670602727816245  1.0000
  H   H39       1.0  0.8903255950575896  0.9482701070085043  0.9329427623033482  1.0000
  H   H40       1.0  0.6096775306670779  0.5517331103429229  0.43293918790302405  1.0000
  C   C1        1.0  0.34800111427359337  0.47173346152865053  0.7295686709430313  1.0000
  C   C2        1.0  0.1520126669574182  0.02827493966659491  0.2295702100926746  1.0000
  C   C3        1.0  0.6520173765615738  0.5282700115182807  0.2704280181090013  1.0000
  C   C4        1.0  0.8479864467397887  0.9717327000367534  0.7704246312066303  1.0000
  C   C5        1.0  0.5367386751270046  0.47764995407111144  0.7755166811166135  1.0000
  C   C6        1.0  0.9632657646872217  0.02235947735674421  0.2755134942948629  1.0000
  C   C7        1.0  0.4632783499831845  0.5223502002990087  0.22448231762929544  1.0000
  C   C8        1.0  0.0367310544599776  0.9776473343410857  0.7244822708817936  1.0000
  C   C9        1.0  0.5177120993639406  0.39144753639722296  0.8190650578502173  1.0000
  C   C10       1.0  0.9822949845408572  0.10856407325413642  0.3190630717891523  1.0000
  C   C11       1.0  0.4822891343755841  0.6085518016218147  0.1809348647756082  1.0000
  C   C12       1.0  0.017715235445152105  0.8914468767833839  0.6809345411328209  1.0000
  C   C13       1.0  0.30169628165014467  0.3037263731027338  0.8142430184034595  1.0000
  C   C14       1.0  0.1983155590476713  0.19628308808460557  0.3142400359296289  1.0000
  C   C15       1.0  0.6982890647429586  0.6962762985642573  0.1857582900360626  1.0000
  C   C16       1.0  0.8016902637837261  0.8037179059388961  0.6857598866936101  1.0000
  C   C17       1.0  0.12214149620765369  0.30405837176286354  0.7670579299808935  1.0000
  C   C18       1.0  0.3778797635022215  0.19594560668093666  0.2670567274201332  1.0000
  C   C19       1.0  0.8778619361122254  0.6959459442656383  0.23294014488724457  1.0000
  C   C20       1.0  0.6221229359602488  0.8040570500132702  0.7329413474498594  1.0000
  C   C21       1.0  0.7141644517363234  0.38843586837221983  0.8665878225139352  1.0000
  C   C22       1.0  0.7858336725805586  0.11157790128739013  0.3665854432795399  1.0000
  C   C23       1.0  0.285824018037907  0.6115651406339069  0.133412562050637  1.0000
  C   C24       1.0  0.21417664336291153  0.8884288987363362  0.6334158651509584  1.0000
  C   C25       1.0  0.754862264117051  0.30170797676908023  0.9049717211807292  1.0000
  C   C26       1.0  0.7451287346860624  0.1982988864327098  0.4049691786143796  1.0000
  C   C27       1.0  0.2451143664825111  0.6982880625456148  0.09503235889549438  1.0000
  C   C28       1.0  0.2548756224244285  0.801698788917271  0.5950321298266701  1.0000
  C   C29       1.0  0.9799386169094433  0.344814572448044  0.9400248775542012  1.0000
  C   C30       1.0  0.5200591489445615  0.1551862259492509  0.44002250979959706  1.0000
  C   C31       1.0  0.02004655499425917  0.6551789695438827  0.059978278646895  1.0000
  C   C32       1.0  0.4799493348594551  0.844816425742003  0.5599778747594613  1.0000
  C   C33       1.0  0.4805317331042218  0.2992886049093856  0.05701661110988711  1.0000
  C   C34       1.0  0.0194717452191142  0.2006986217236104  0.5570176040716319  1.0000
  C   C35       1.0  0.5194560997802214  0.700706594756845  0.9429851592748973  1.0000
  C   C36       1.0  0.9805417900629365  0.7993023656254723  0.4429864759924484  1.0000
  C   C37       1.0  0.3506360976207786  0.34846208604212586  0.0123365527985086  1.0000
  C   C38       1.0  0.1493561092997027  0.15152961772729162  0.5123362117869874  1.0000
  C   C39       1.0  0.6493471461799202  0.6515314576261916  0.9876633698367244  1.0000
  C   C40       1.0  0.8506500799502419  0.8484722059551686  0.4876660205255021  1.0000
  C   C41       1.0  0.11720242677353102  0.29069746232971744  0.9863186799342928  1.0000
  C   C42       1.0  0.3827739435490684  0.20929503708845232  0.4863156002004345  1.0000
  C   C43       1.0  0.8827827451322036  0.7092960796638509  0.0136840143287813  1.0000
  C   C44       1.0  0.6172195777255709  0.7907043075935364  0.5136833985507891  1.0000
  C   C45       1.0  0.030061898106538396  0.18119677951440852  0.006413355061347699  1.0000
  C   C46       1.0  0.469937977438363  0.3187991096342984  0.50641439446985  1.0000
  C   C47       1.0  0.9699287877020311  0.8187917778214953  0.9935879533917102  1.0000
  C   C48       1.0  0.5300700439713636  0.6812068623970332  0.4935841423337379  1.0000
  C   C49       1.0  0.17455278578133712  0.13627183281447233  0.0506014422009358  1.0000
  C   C50       1.0  0.32544587197818947  0.36372623333815574  0.5506061396011575  1.0000
  C   C51       1.0  0.8254535954343395  0.8637216908813911  0.9493966326777681  1.0000
  C   C52       1.0  0.6745509471527456  0.6362805783465576  0.4493933210797749  1.0000
  N   N1        1.0  0.14455504849435397  0.38612039239264123  0.7247364642869698  1.0000
  N   N2        1.0  0.3554623610599279  0.1138830601132952  0.22473543953140046  1.0000
  N   N3        1.0  0.8554465516718394  0.6138797752919061  0.2752639202759681  1.0000
  N   N4        1.0  0.6445376774339948  0.8861179389164419  0.7752612495267073  1.0000
  N   N5        1.0  0.9109612619285129  0.4758515602557623  0.8807802789476185  1.0000
  N   N6        1.0  0.5890418849512713  0.0241562943474918  0.3807744596136828  1.0000
  N   N7        1.0  0.08903464984749118  0.5241444624130267  0.11922287724887332  1.0000
  N   N8        1.0  0.4109650371723462  0.9758471886823871  0.6192240771926835  1.0000
  N   N9        1.0  0.07236160758849758  0.4523292204362619  0.9246950643003303  1.0000
  N   N10       1.0  0.427635223200447  0.04766950908094711  0.424690453049557  1.0000
  N   N11       1.0  0.9276254924304155  0.5476643198891084  0.0753085538384397  1.0000
  N   N12       1.0  0.5723663769718499  0.9523306586085241  0.5753085456992721  1.0000
  N   N13       1.0  0.3947160956391541  0.19428339907499756  0.0762730846242832  1.0000
  N   N14       1.0  0.10527830546134  0.30570535853262737  0.5762742902032656  1.0000
  N   N15       1.0  0.605278350434233  0.8057093049350215  0.9237272999477143  1.0000
  N   N16       1.0  0.8947282502254338  0.6942972948235424  0.42372609435615516  1.0000
  Cl  Cl1       1.0  0.8570230817792037  0.5350710887728951  0.6175499212441693  1.0000
  Cl  Cl2       1.0  0.6429873305422121  0.9649227435597968  0.11755472069595642  1.0000
  Cl  Cl3       1.0  0.14298925827758066  0.4649315596032721  0.38244630587185924  1.0000
  Cl  Cl4       1.0  0.35700701957168224  0.03507411046238221  0.8824424303055451  1.0000
  Cl  Cl5       1.0  0.5803048973920683  0.22449676325641832  0.6727883824006824  1.0000
  Cl  Cl6       1.0  0.919708080589764  0.2755001110171236  0.1727842281608503  1.0000
  Cl  Cl7       1.0  0.4196980725213209  0.7755108731023344  0.3272106163401887  1.0000
  Cl  Cl8       1.0  0.0802982046521946  0.7244975626794171  0.8272138467135974  1.0000
