data_image0
_chemical_formula_structural       Zn2H34C50N2O8
_chemical_formula_sum              "Zn2 H34 C50 N2 O8"
_cell_length_a       9.552844083302997
_cell_length_b       15.787360027087376
_cell_length_c       15.8792434023354
_cell_angle_alpha    89.66927498093878
_cell_angle_beta     89.98473918130586
_cell_angle_gamma    89.15310202554899

_space_group_name_H-M_alt    "P 1"
_space_group_IT_number       1

loop_
  _space_group_symop_operation_xyz
  'x, y, z'

loop_
  _atom_site_type_symbol
  _atom_site_label
  _atom_site_symmetry_multiplicity
  _atom_site_fract_x
  _atom_site_fract_y
  _atom_site_fract_z
  _atom_site_occupancy
  Zn  Zn1       1.0  0.14564890535510236  0.0021393401025378003  0.9989789424898774  1.0000
  Zn  Zn2       1.0  0.8522172918667505  0.0020826112920602  0.00018272919250250007  1.0000
  H   H1        1.0  0.6121940515182586  0.8886733303394789  0.0712142611912583  1.0000
  H   H2        1.0  0.3673201913647617  0.8741529570455456  0.04482622558346348  1.0000
  H   H3        1.0  0.6313392352017146  0.030116787291248694  0.1278449346467667  1.0000
  H   H4        1.0  0.3871106593464545  1.819169020220009e-05  0.12958673599469964  1.0000
  H   H5        1.0  0.6067444442645992  0.11667750690064338  0.0581307949675747  1.0000
  H   H6        1.0  0.3901512206102923  0.8845204980017415  0.9346546194163777  1.0000
  H   H7        1.0  0.6359829027119019  0.8712917354684534  0.9620536706363721  1.0000
  H   H8        1.0  0.6307373815558035  0.09539381695617519  0.9064085632359848  1.0000
  H   H9        1.0  0.36508116286734094  0.0216975614693951  0.8676233968086251  1.0000
  H   H10       1.0  0.3855990901455256  0.1126100073452747  0.9304894104821884  1.0000
  H   H11       1.0  0.6109363529577507  0.9914069086542624  0.86814091614454  1.0000
  H   H12       1.0  0.2256951623378427  0.28700141655442485  0.3145390969218766  1.0000
  H   H13       1.0  0.2246619489944024  0.7536320363204893  0.6552257139271873  1.0000
  H   H14       1.0  0.23333067239125427  0.7515920240452303  0.3447890801206768  1.0000
  H   H15       1.0  0.22052374444621842  0.26155143960812677  0.6607067922757254  1.0000
  H   H16       1.0  0.770161230756564  0.2661242938157286  0.6608173740868253  1.0000
  H   H17       1.0  0.9989660873810847  0.21048530454888945  0.4936449729513157  1.0000
  H   H18       1.0  0.7850350782163104  0.7317045711127507  0.3338228468584746  1.0000
  H   H19       1.0  0.011548048567512091  0.7939703141069572  0.5060801725223315  1.0000
  H   H20       1.0  0.0153084055425552  0.4301434166873363  0.28358621843759113  1.0000
  H   H21       1.0  0.9897239839396406  0.41864559150317854  0.7124889980782285  1.0000
  H   H22       1.0  0.7819681178120489  0.7151696162223118  0.6831322010293163  1.0000
  H   H23       1.0  0.7824935199205642  0.25340078112489545  0.3455538854402889  1.0000
  H   H24       1.0  0.7816193384586397  0.82135126781575  0.2032907947546576  1.0000
  H   H25       1.0  0.7706971638080803  0.17817013243242738  0.7923557579171215  1.0000
  H   H26       1.0  0.7810044862102359  0.8070600298419562  0.810966689501619  1.0000
  H   H27       1.0  0.7785654136690069  0.16483015868680437  0.2153730901372839  1.0000
  H   H28       1.0  0.22280029468754486  0.8427958642923271  0.7850952860025302  1.0000
  H   H29       1.0  0.2208845512362387  0.19644290644173168  0.1860396488067266  1.0000
  H   H30       1.0  0.228491658370011  0.8399075938232696  0.2133905121738096  1.0000
  H   H31       1.0  0.21955201509067734  0.17366530535408486  0.7923545930329892  1.0000
  H   H32       1.0  0.3625055081019184  0.10125405548850348  0.08364683399920382  1.0000
  H   H33       1.0  0.9921345552177596  0.5743741045865818  0.7159408416804067  1.0000
  H   H34       1.0  0.016082712896228195  0.5858745590271112  0.2870227783979402  1.0000
  C   C1        1.0  0.5810560606193745  0.911095277163149  0.0082924141686291  1.0000
  C   C2        1.0  0.42049997373626263  0.9108295586164132  0.9957223331114378  1.0000
  C   C3        1.0  0.999972194305542  0.5906049249575035  0.5798635375056094  1.0000
  C   C4        1.0  0.0039228919695801995  0.5475165783676346  0.5007370162015548  1.0000
  C   C5        1.0  0.12739089954406072  0.2604347645690196  0.2927830022938807  1.0000
  C   C6        1.0  0.004323620436650799  0.2757175297003869  0.33894536246425117  1.0000
  C   C7        1.0  0.0054209858796241  0.32434018042418694  0.41893732745433  1.0000
  C   C8        1.0  0.1274816979693441  0.7648425437127385  0.6897874632893275  1.0000
  C   C9        1.0  0.0033337542898195013  0.7288639213724436  0.6604133555822642  1.0000
  C   C10       1.0  0.004035615810615001  0.6800906082661342  0.5806057407791627  1.0000
  C   C11       1.0  0.0124678042544275  0.549590340487029  0.3455920935759805  1.0000
  C   C12       1.0  0.13420033226936573  0.7666619371688553  0.3135912022175232  1.0000
  C   C13       1.0  0.1218179000459827  0.243231079433869  0.689659027233084  1.0000
  C   C14       1.0  0.8688141820712472  0.24583135744732232  0.6896915661444466  1.0000
  C   C15       1.0  0.9953663784848531  0.2692073854216659  0.651887250874502  1.0000
  C   C16       1.0  0.9969673648550667  0.32043208670244633  0.5729434011569126  1.0000
  C   C17       1.0  0.9999276039403212  0.27958926542341084  0.4951295964555554  1.0000
  C   C18       1.0  0.9977633379048497  0.40991500241725726  0.5758876972567109  1.0000
  C   C19       1.0  0.8823487819795375  0.755482760086629  0.3073047545577197  1.0000
  C   C20       1.0  0.009398458056715199  0.7359472720296907  0.34794337252330365  1.0000
  C   C21       1.0  0.010168687119289598  0.6842280919667587  0.42657096430484387  1.0000
  C   C22       1.0  0.0098592354530496  0.7248873786239897  0.5044658073128402  1.0000
  C   C23       1.0  0.0085953430191736  0.5947226539868781  0.4235816890383859  1.0000
  C   C24       1.0  0.012224180765450392  0.4631319836954688  0.343709898406594  1.0000
  C   C25       1.0  0.007958272632045299  0.41388327098057687  0.4196877818482392  1.0000
  C   C26       1.0  0.003352548363103797  0.45707158801790365  0.4987448602411533  1.0000
  C   C27       1.0  0.9947774718877869  0.5413680301395445  0.6558335041786734  1.0000
  C   C28       1.0  0.9936058198633972  0.4549316089620987  0.6539326107173551  1.0000
  C   C29       1.0  0.878823919567516  0.7430595059085903  0.7055475842385661  1.0000
  C   C30       1.0  0.8785464241336244  0.2412417507095127  0.31019048826072987  1.0000
  C   C31       1.0  0.0022525688407669035  0.8909668226455948  0.1233872242254535  1.0000
  C   C32       1.0  0.0049261737762123035  0.8356686019268904  0.2003861689946262  1.0000
  C   C33       1.0  0.997873837233904  0.11733602572383717  0.1184852782869967  1.0000
  C   C34       1.0  0.9994174787267909  0.17516932775134822  0.1930097333051606  1.0000
  C   C35       1.0  0.000595878856096  0.888068338951065  0.8800440777712237  1.0000
  C   C36       1.0  0.0018918816032779929  0.830302249821486  0.8055822314053103  1.0000
  C   C37       1.0  0.9963227526821893  0.11501596576051297  0.8771050928070707  1.0000
  C   C38       1.0  0.9951672560869084  0.17068436728997227  0.800277496945881  1.0000
  C   C39       1.0  0.8800601700115604  0.8051427463555071  0.2345507295714242  1.0000
  C   C40       1.0  0.868755882214394  0.19701105381825806  0.7631188588562663  1.0000
  C   C41       1.0  0.8779313038832867  0.7939645662201613  0.776917292264315  1.0000
  C   C42       1.0  0.8758713157551056  0.19199250582658323  0.2377404787062787  1.0000
  C   C43       1.0  0.12694970938702002  0.8144590357000966  0.7620007469294166  1.0000
  C   C44       1.0  0.1250532837900877  0.21014936625705619  0.2209587195142646  1.0000
  C   C45       1.0  0.13199415075408888  0.8157427619418839  0.2403911004197496  1.0000
  C   C46       1.0  0.1217370242616695  0.1945196368418749  0.7630194142474309  1.0000
  C   C47       1.0  0.5784667091305168  0.035134329107762596  0.9182909098308656  1.0000
  C   C48       1.0  0.5774137931786641  0.05071747705530778  0.0700781690079069  1.0000
  C   C49       1.0  0.4176314644125938  0.040361975548904604  0.07626824560743017  1.0000
  C   C50       1.0  0.41806410628901597  0.04601448211847269  0.9236500542751144  1.0000
  N   N1        1.0  0.633424196844011  0.999197861294405  0.9989979215560822  1.0000
  N   N2        1.0  0.3643685384794678  0.9993806041928863  0.9985110991992696  1.0000
  O   O1        1.0  0.11999526338035343  0.9146794762196749  0.094353445333951  1.0000
  O   O2        1.0  0.8826950492243029  0.9112657118252087  0.093253153882209  1.0000
  O   O3        1.0  0.11596382812098227  0.09637118767219019  0.0870257706494826  1.0000
  O   O4        1.0  0.8792151991703461  0.0919315097752218  0.0931652140597379  1.0000
  O   O5        1.0  0.11889301054952739  0.9109251293148759  0.908440835128701  1.0000
  O   O6        1.0  0.8813920554613544  0.9112999704023322  0.9086043512950039  1.0000
  O   O7        1.0  0.11570857155261649  0.091146398032862  0.9047284845586958  1.0000
  O   O8        1.0  0.8785893850698159  0.09428861072741059  0.9082056689557234  1.0000
