data_image0
_chemical_formula_structural       Zn2H28C40N4O16
_chemical_formula_sum              "Zn2 H28 C40 N4 O16"
_cell_length_a       8.230109795540274
_cell_length_b       8.230100063462539
_cell_length_c       14.622944583369444
_cell_angle_alpha    86.71294787563492
_cell_angle_beta     86.7130802513329
_cell_angle_gamma    73.37706462822678

_space_group_name_H-M_alt    "P 1"
_space_group_IT_number       1

loop_
  _space_group_symop_operation_xyz
  'x, y, z'

loop_
  _atom_site_type_symbol
  _atom_site_label
  _atom_site_symmetry_multiplicity
  _atom_site_fract_x
  _atom_site_fract_y
  _atom_site_fract_z
  _atom_site_occupancy
  Zn  Zn1       1.0  0.7492080561537408  0.2507945025806748  0.7499999372738415  1.0000
  Zn  Zn2       1.0  0.25079335755214066  0.7492034343167333  0.2499996538674338  1.0000
  H   H1        1.0  0.025562910640559284  0.42349931474253577  0.6602696044361593  1.0000
  H   H2        1.0  0.5765041750460469  0.9744371073317525  0.8397297654506206  1.0000
  H   H3        1.0  0.9744374142226065  0.5765024470900145  0.33973125202477666  1.0000
  H   H4        1.0  0.423500018777098  0.0255595609133223  0.16026840127416625  1.0000
  H   H5        1.0  0.3394734553816861  0.31335344643314766  0.6278939454730548  1.0000
  H   H6        1.0  0.686647952226558  0.6605253960600593  0.8721058137084441  1.0000
  H   H7        1.0  0.6605263838752791  0.686645759363742  0.37210634101415263  1.0000
  H   H8        1.0  0.3133550271787442  0.3394712631902408  0.1278923988401246  1.0000
  H   H9        1.0  0.4853966382060193  0.006811876014616302  0.6578857705660044  1.0000
  H   H10       1.0  0.9931898425123576  0.5146025591227783  0.8421142488603836  1.0000
  H   H11       1.0  0.514605629886631  0.9931873477718228  0.342114424273646  1.0000
  H   H12       1.0  0.006813991279720689  0.4853953870165526  0.157884567386553  1.0000
  H   H13       1.0  0.4622771168389192  0.7167307937254392  0.7184651213346387  1.0000
  H   H14       1.0  0.2832701940252349  0.5377219388248875  0.7815344687471609  1.0000
  H   H15       1.0  0.537725636859939  0.28327098609666723  0.2815356434787404  1.0000
  H   H16       1.0  0.7167345204020988  0.4622773204463472  0.21846700093850302  1.0000
  H   H17       1.0  0.32512543103037217  0.47038344346855615  0.9902728425765873  1.0000
  H   H18       1.0  0.5296155240491062  0.6748771394208857  0.5097274442498829  1.0000
  H   H19       1.0  0.6748747682576591  0.5296144844340703  0.009726794388470206  1.0000
  H   H20       1.0  0.47038601523190243  0.325124631406446  0.4902733663872709  1.0000
  H   H21       1.0  0.29296900049498487  0.24967974975519522  0.8920944147062926  1.0000
  H   H22       1.0  0.7503206103251331  0.7070325256798566  0.6079052940117435  1.0000
  H   H23       1.0  0.7070308475114684  0.750319464789314  0.10790655502770363  1.0000
  H   H24       1.0  0.24968054267630888  0.29297049679885123  0.3920941164072005  1.0000
  H   H25       1.0  0.9039996651223349  0.18659317894090316  0.975517799023706  1.0000
  H   H26       1.0  0.8134072541587403  0.09600039060437379  0.5244823869223866  1.0000
  H   H27       1.0  0.09599421887102715  0.813409807064403  0.024483252831487303  1.0000
  H   H28       1.0  0.18658877171738913  0.904007672728916  0.47551634282254446  1.0000
  C   C1        1.0  0.09353803346031946  0.29101704307181825  0.6757531668120224  1.0000
  C   C2        1.0  0.7089853468199224  0.9064629394835536  0.8242477026518955  1.0000
  C   C3        1.0  0.9064614282665744  0.7089834231240815  0.3242464027037642  1.0000
  C   C4        1.0  0.2910185132206351  0.0935350328986502  0.17575316333540064  1.0000
  C   C5        1.0  0.26843767710620625  0.22777967417277978  0.655923820680407  1.0000
  C   C6        1.0  0.7722236444272851  0.7315611845564904  0.8440758753686168  1.0000
  C   C7        1.0  0.731558978254931  0.7722220344325732  0.34407512351150876  1.0000
  C   C8        1.0  0.22778054939586678  0.2684354836885845  0.1559222913561698  1.0000
  C   C9        1.0  0.3495238677511594  0.0577920942707522  0.6736752362801398  1.0000
  C   C10       1.0  0.9422078424469831  0.6504750447408368  0.8263240588814398  1.0000
  C   C11       1.0  0.6504747395889653  0.9422070850361094  0.32632372953727173  1.0000
  C   C12       1.0  0.05779479442624339  0.34952290989896534  0.17367616968284955  1.0000
  C   C13       1.0  0.255041100133674  0.9496320398213314  0.7118772023824038  1.0000
  C   C14       1.0  0.05036957213310702  0.7449590757042159  0.7881227288523932  1.0000
  C   C15       1.0  0.74495627528961  0.0503671129955094  0.2881204427652193  1.0000
  C   C16       1.0  0.949632704709039  0.2550401568298497  0.21187814923404602  1.0000
  C   C17       1.0  0.32659745250497  0.771979160414233  0.7321499901349213  1.0000
  C   C18       1.0  0.22802200497343256  0.6734004585985289  0.7678488319233028  1.0000
  C   C19       1.0  0.6734035924203425  0.22802004562980469  0.26784956728171494  1.0000
  C   C20       1.0  0.7719814862865633  0.3265987829303043  0.23215200033935451  1.0000
  C   C21       1.0  0.07940661411667091  0.024008429589812894  0.7306367381254759  1.0000
  C   C22       1.0  0.9759925642233966  0.9205949721019095  0.7693643200430247  1.0000
  C   C23       1.0  0.9205932426392852  0.9759907937023157  0.2693649148553092  1.0000
  C   C24       1.0  0.024008471952420504  0.07940422519450148  0.2306345541268301  1.0000
  C   C25       1.0  0.5374282694464937  0.3692269071332817  0.8917881097799808  1.0000
  C   C26       1.0  0.6307726919132862  0.4625709367562436  0.6082124769730299  1.0000
  C   C27       1.0  0.46257108420426374  0.6307697426279404  0.1082116067334979  1.0000
  C   C28       1.0  0.36922884736772227  0.5374308340710812  0.39178833366412397  1.0000
  C   C29       1.0  0.45780523277846186  0.4631306763316374  0.9737481699323001  1.0000
  C   C30       1.0  0.5368678804415125  0.5421951782763587  0.5262516174570919  1.0000
  C   C31       1.0  0.5421953352901382  0.5368659824243595  0.026251500757403807  1.0000
  C   C32       1.0  0.4631327957032314  0.4578052969143158  0.4737479062349125  1.0000
  C   C33       1.0  0.18069138465978798  0.08337954767574732  0.9453206043649589  1.0000
  C   C34       1.0  0.9166195103306833  0.8193079019169858  0.55467858715771  1.0000
  C   C35       1.0  0.8193028593646471  0.9166221604353025  0.054679797968091734  1.0000
  C   C36       1.0  0.08337689307551703  0.18069890101730124  0.4453208595586561  1.0000
  C   C37       1.0  0.011129900852118596  0.07244665734027932  0.9811893978060909  1.0000
  C   C38       1.0  0.9275532251318668  0.9888710363098809  0.5188116527361545  1.0000
  C   C39       1.0  0.9888668888336409  0.9275588939426171  0.018811449128492103  1.0000
  C   C40       1.0  0.07243990380136718  0.011134470493445302  0.48118796517619  1.0000
  N   N1        1.0  0.0026340298975214066  0.19162081499605682  0.7130541369128949  1.0000
  N   N2        1.0  0.80838113683366  0.9973674114432639  0.7869467367670211  1.0000
  N   N3        1.0  0.9973685719777166  0.8083771046532533  0.28694335866423876  1.0000
  N   N4        1.0  0.19162029437121222  0.0026305429493902006  0.21305422086783213  1.0000
  O   O1        1.0  0.6842849452506671  0.38130449544674855  0.8623594827827719  1.0000
  O   O2        1.0  0.6186967783079566  0.31571356104380044  0.6376418363101666  1.0000
  O   O3        1.0  0.3157140308700264  0.6186934147134764  0.13763951675927902  1.0000
  O   O4        1.0  0.38130597539090155  0.684288218778299  0.3623589285032126  1.0000
  O   O5        1.0  0.45914742597006597  0.28367284505605284  0.8514344134592167  1.0000
  O   O6        1.0  0.7163268256404649  0.5408528345792263  0.6485647678980229  1.0000
  O   O7        1.0  0.5408550940775286  0.7163212844014524  0.14856527885598333  1.0000
  O   O8        1.0  0.2836762880894667  0.4591476673486171  0.35143534739320614  1.0000
  O   O9        1.0  0.30961632797038874  0.9623311805049682  0.942950323795202  1.0000
  O   O10       1.0  0.037667911556525324  0.6903831285821482  0.5570477034530796  1.0000
  O   O11       1.0  0.6903787616913278  0.0376718057474861  0.05704999898942021  1.0000
  O   O12       1.0  0.9623305344058013  0.30962494399307877  0.44295025139750527  1.0000
  O   O13       1.0  0.1745614497764834  0.24237716390420866  0.9153319414740508  1.0000
  O   O14       1.0  0.7576217733645905  0.825440024156812  0.5846698041719309  1.0000
  O   O15       1.0  0.8254336573842167  0.7576258398434917  0.0846697478041492  1.0000
  O   O16       1.0  0.24237378440432886  0.17456550063606363  0.4153297220928566  1.0000
