data_image0
_chemical_formula_structural       V4Cd2H14C10N10O14
_chemical_formula_sum              "V4 Cd2 H14 C10 N10 O14"
_cell_length_a       7.571704479213368
_cell_length_b       7.915064311580086
_cell_length_c       10.176833987080771
_cell_angle_alpha    98.28964010073327
_cell_angle_beta     95.28674152525458
_cell_angle_gamma    99.39711557283123

_space_group_name_H-M_alt    "P 1"
_space_group_IT_number       1

loop_
  _space_group_symop_operation_xyz
  'x, y, z'

loop_
  _atom_site_type_symbol
  _atom_site_label
  _atom_site_symmetry_multiplicity
  _atom_site_fract_x
  _atom_site_fract_y
  _atom_site_fract_z
  _atom_site_occupancy
  V   V1        1.0  0.7946448346065723  0.5898115783618323  0.33033796754676803  1.0000
  V   V2        1.0  0.20535610175105032  0.4101900533031041  0.6696633116208659  1.0000
  V   V3        1.0  0.2263129223138308  0.6379088594203209  0.42255569443196345  1.0000
  V   V4        1.0  0.773686440704758  0.3620914810299779  0.5774453266719064  1.0000
  Cd  Cd1       1.0  0.500001279621344  0.5000018746123516  6.538918881792653e-07  1.0000
  Cd  Cd2       1.0  8.876413985997386e-07  8.837272459993902e-07  0.4999998359420985  1.0000
  H   H1        1.0  0.9435764697511505  0.6171918745408861  0.08470935546669273  1.0000
  H   H2        1.0  0.05642265158043362  0.3828071778831372  0.9152895357226215  1.0000
  H   H3        1.0  0.5844407197416503  0.8849514382308925  0.5692556037041853  1.0000
  H   H4        1.0  0.4155621352533815  0.11504630661453769  0.43074143310172264  1.0000
  H   H5        1.0  0.7094381537399315  0.2336680445370689  0.949652917201078  1.0000
  H   H6        1.0  0.2905636047548868  0.7663309754404608  0.05035008506470012  1.0000
  H   H7        1.0  0.587767431176353  0.2473112993185183  0.8151619165895453  1.0000
  H   H8        1.0  0.4122290235835919  0.7526877418758672  0.18484170014860268  1.0000
  H   H9        1.0  0.22802832111449334  0.041697316917350194  0.7701655400539948  1.0000
  H   H10       1.0  0.7719712966615049  0.958304330970833  0.22983368357540707  1.0000
  H   H11       1.0  0.3423490403807251  0.9782063944005939  0.9057328378120882  1.0000
  H   H12       1.0  0.6576503226378637  0.021793946049704988  0.0942681832917813  1.0000
  H   H13       1.0  0.48304675722273777  0.695896498488139  0.7486344011621779  1.0000
  H   H14       1.0  0.51695501761008  0.3041025457539063  0.2513636918673186  1.0000
  C   C1        1.0  0.7579894885377388  0.7529505769433129  0.8307056858169375  1.0000
  C   C2        1.0  0.2420116960420913  0.24705235245370716  0.16929575957075113  1.0000
  C   C3        1.0  0.9294118246013099  0.6847058240498712  0.99927457376549  1.0000
  C   C4        1.0  0.07058621656806001  0.3152945277707744  0.0007253736474055053  1.0000
  C   C5        1.0  0.07696186953989331  0.8644031449159681  0.8640135059497139  1.0000
  C   C6        1.0  0.9230361781646792  0.13559721661047766  0.13598447776866607  1.0000
  C   C7        1.0  0.9073353601011223  0.8487685227867772  0.7868550994909711  1.0000
  C   C8        1.0  0.09266715939832441  0.1512344146515048  0.21314349219866807  1.0000
  C   C9        1.0  0.6718127494308918  0.8599001610560109  0.6521585956020742  1.0000
  C   C10       1.0  0.328187700285106  0.14009888970347353  0.3478394055836986  1.0000
  N   N1        1.0  0.8494840689675554  0.9138608740315134  0.6740563967415765  1.0000
  N   N2        1.0  0.1505153071214309  0.08613948583039387  0.32594069697326933  1.0000
  N   N3        1.0  0.7623368366237318  0.6672285139802054  0.9361905696148084  1.0000
  N   N4        1.0  0.2376638580468722  0.3327718296584549  0.0638085796382697  1.0000
  N   N5        1.0  0.08067640158706271  0.7766088539290833  0.9699249243049621  1.0000
  N   N6        1.0  0.9193208174451045  0.22339410957896175  0.030073300009789215  1.0000
  N   N7        1.0  0.22912753072223782  0.9595641799782652  0.8399578705598072  1.0000
  N   N8        1.0  0.7708752304642205  0.04044004548629939  0.16004285104439478  1.0000
  N   N9        1.0  0.6109730610989818  0.7647040953438732  0.7452893729513048  1.0000
  N   N10       1.0  0.38902846224403476  0.23529364631318833  0.2547095357053948  1.0000
  O   O1        1.0  0.19651124369031692  0.8119395278928464  0.5254230337200666  1.0000
  O   O2        1.0  0.8034838990232063  0.18805953923058635  0.47457656378534085  1.0000
  O   O3        1.0  0.39052283924993964  0.6922641379926586  0.33324981921527547  1.0000
  O   O4        1.0  0.609477104218847  0.3077323027439647  0.6667507950721755  1.0000
  O   O5        1.0  0.018622640815550505  0.5516169411104029  0.31355126170064546  1.0000
  O   O6        1.0  0.9813777958300565  0.4483820902374731  0.6864506668741511  1.0000
  O   O7        1.0  0.7999661786374689  0.8022357722521888  0.3364424763559555  1.0000
  O   O8        1.0  0.20003160777449847  0.19776327213056533  0.6635592685314008  1.0000
  O   O9        1.0  0.7232493665614612  0.5261083911744178  0.4803858583684358  1.0000
  O   O10       1.0  0.2767497515025213  0.4738906563967049  0.5196140146681287  1.0000
  O   O11       1.0  0.6617307912305536  0.47195735172412157  0.1964959819049241  1.0000
  O   O12       1.0  0.3382669951814066  0.5280416926586327  0.8035057629824393  1.0000
  O   O13       1.0  0.5815406290066606  0.23429783657662281  0.9112780237652202  1.0000
  O   O14       1.0  0.4184598043713451  0.7657011899183459  0.0887248866568342  1.0000
