data_image0
_chemical_formula_structural       Al2H20C32O18
_chemical_formula_sum              "Al2 H20 C32 O18"
_cell_length_a       6.579927727528746
_cell_length_b       11.151151420174784
_cell_length_c       15.092888742811585
_cell_angle_alpha    85.44059667285148
_cell_angle_beta     78.84245266899872
_cell_angle_gamma    72.15313164502172

_space_group_name_H-M_alt    "P 1"
_space_group_IT_number       1

loop_
  _space_group_symop_operation_xyz
  'x, y, z'

loop_
  _atom_site_type_symbol
  _atom_site_label
  _atom_site_symmetry_multiplicity
  _atom_site_fract_x
  _atom_site_fract_y
  _atom_site_fract_z
  _atom_site_occupancy
  Al  Al1       1.0  0.4880374384418714  0.5031878239542279  0.4968097295475573  1.0000
  Al  Al2       1.0  0.9893609813126218  0.5043734766929971  0.4982710679758852  1.0000
  H   H1        1.0  0.28461944354523894  0.35878153233036153  0.5599383308741184  1.0000
  H   H2        1.0  0.6623726253879312  0.6595303358675436  0.4786411728499332  1.0000
  H   H3        1.0  0.8177904772021735  0.46088905613042636  0.9540328225618853  1.0000
  H   H4        1.0  0.15902645187587441  0.47561832283054156  0.046361228719646916  1.0000
  H   H5        1.0  0.5713117334689956  0.6180885056782656  0.2355800189152717  1.0000
  H   H6        1.0  0.6594100768873827  0.6398470626227352  0.06898937034367245  1.0000
  H   H7        1.0  0.2783689521241399  0.6069654730701615  0.7513839148060057  1.0000
  H   H8        1.0  0.1574819682820845  0.6358556248982693  0.9176002662551924  1.0000
  H   H9        1.0  0.23256719207328294  0.23454826684056226  0.3811408723410637  1.0000
  H   H10       1.0  0.44144596337594777  0.765928052354404  0.383505694102908  1.0000
  H   H11       1.0  0.0898840355038288  0.4684627690509943  0.7373123623568106  1.0000
  H   H12       1.0  0.019927592914754766  0.3287878201132911  0.740077258154905  1.0000
  H   H13       1.0  0.09214362814090998  0.3725626648146445  0.8375515350019996  1.0000
  H   H14       1.0  0.8896054046662412  0.4985662208117034  0.2677219181402891  1.0000
  H   H15       1.0  0.07133251205466004  0.34767193069378516  0.2574254984702052  1.0000
  H   H16       1.0  0.9450156564277705  0.41699680976484615  0.16447498406282085  1.0000
  H   H17       1.0  0.9890243273776207  0.8102180714614275  0.6753040595137778  1.0000
  H   H18       1.0  0.7590257517997187  0.14008982398262754  0.6924807815619902  1.0000
  H   H19       1.0  0.4112185730414453  0.2470453834100255  0.22960176774443408  1.0000
  H   H20       1.0  0.8557028352562526  0.7639312665093526  0.37196582641812637  1.0000
  C   C1        1.0  0.8535603581423316  0.2799671896822673  0.48390349443022285  1.0000
  C   C2        1.0  0.6722548053204419  0.5092574538287734  0.659989467761058  1.0000
  C   C3        1.0  0.12970870652239347  0.7333119232798849  0.5052444356551646  1.0000
  C   C4        1.0  0.2896720037310842  0.5165424666064807  0.3348782806991295  1.0000
  C   C5        1.0  0.6140993444041173  0.5214514077494741  0.7596285746970823  1.0000
  C   C6        1.0  0.32139019213956754  0.5317769273790843  0.23532729817237208  1.0000
  C   C7        1.0  0.7717516852952997  0.47902416883755433  0.8159559923593351  1.0000
  C   C8        1.0  0.7005309979828666  0.49667718468451477  0.9087592985520062  1.0000
  C   C9        1.0  0.1965502786549607  0.4938287827548109  0.18230730590136804  1.0000
  C   C10       1.0  0.24836783503744903  0.5080318458697021  0.08852141860089802  1.0000
  C   C11       1.0  0.4829031187723841  0.586077918746966  0.19318654673766392  1.0000
  C   C12       1.0  0.5327822044231355  0.5976228754379277  0.100029094586688  1.0000
  C   C13       1.0  0.3953031611151374  0.5766418613848925  0.7969596205722668  1.0000
  C   C14       1.0  0.32803467986843077  0.5920569366197908  0.8895111836350793  1.0000
  C   C15       1.0  0.48169715632661075  0.5514804490816801  0.9468099242228478  1.0000
  C   C16       1.0  0.4180457564772909  0.5554502123831638  0.046091438669364514  1.0000
  C   C17       1.0  0.9285260118126003  0.1385472870392874  0.48634240133437606  1.0000
  C   C18       1.0  0.1339619442069448  0.0709142163920404  0.4360309461460759  1.0000
  C   C19       1.0  0.7983626216674439  0.07524634367180738  0.542171523712426  1.0000
  C   C20       1.0  0.2757346028773995  0.1321752637240579  0.3811166669641041  1.0000
  C   C21       1.0  0.47220894924778634  0.06419028713555969  0.33259935462274376  1.0000
  C   C22       1.0  0.06473658891891174  0.8741289610623895  0.4987946042030487  1.0000
  C   C23       1.0  0.8703854610968875  0.9418730687470572  0.5505667910091604  1.0000
  C   C24       1.0  0.2000738174900789  0.9361096889086156  0.4401427703399463  1.0000
  C   C25       1.0  0.39846795428180576  0.8682001677439716  0.3858551785391954  1.0000
  C   C26       1.0  0.5339765337571905  0.929820930447505  0.3340947275689247  1.0000
  C   C27       1.0  0.0055361097855950335  0.40904066573001774  0.7812721155248641  1.0000
  C   C28       1.0  0.016847173492202265  0.436606206258041  0.2193602761587314  1.0000
  C   C29       1.0  0.7371431329328432  0.8755122396179615  0.6175957873961837  1.0000
  C   C30       1.0  0.5880534410959228  0.14627808030935088  0.6006299044086633  1.0000
  C   C31       1.0  0.6346792362786076  0.12845456126732563  0.2857454255794211  1.0000
  C   C32       1.0  0.7319597041234758  0.8577582037335459  0.2701379561632891  1.0000
  O   O1        1.0  0.6650640532857538  0.3346333380251992  0.4670144841239576  1.0000
  O   O2        1.0  0.8521608129486256  0.5261895305313897  0.6212820038316097  1.0000
  O   O3        1.0  0.9927075022642169  0.6814284567651114  0.48932697067103  1.0000
  O   O4        1.0  0.42832939390350333  0.5377085666203952  0.3760040220089849  1.0000
  O   O5        1.0  0.31331394976873383  0.6765924242197414  0.5255386811637879  1.0000
  O   O6        1.0  0.12374815662187892  0.4847103834854423  0.3752733573477088  1.0000
  O   O7        1.0  0.9835840635959342  0.3341378878173416  0.5019133413379466  1.0000
  O   O8        1.0  0.5380275815646486  0.48292592543062074  0.6195418624847377  1.0000
  O   O9        1.0  0.2528724924087058  0.44539691020031563  0.535879373757446  1.0000
  O   O10       1.0  0.7189084535681403  0.5713744573811823  0.4620462147142703  1.0000
  O   O11       1.0  0.8401985383468683  0.8059448748776249  0.6831168887222959  1.0000
  O   O12       1.0  0.5488540259880849  0.8842338573232168  0.6167488529213473  1.0000
  O   O13       1.0  0.606871816702558  0.16967124890985016  0.6852741317991972  1.0000
  O   O14       1.0  0.4115910799953326  0.18071513585753246  0.5777342100886289  1.0000
  O   O15       1.0  0.5627660384861668  0.23297359004006077  0.23481769617817605  1.0000
  O   O16       1.0  0.8242124123440177  0.0910504510918173  0.2948617417429277  1.0000
  O   O17       1.0  0.8853688591797069  0.7668211257212217  0.3056859086252644  1.0000
  O   O18       1.0  0.7500139714041509  0.876550405179202  0.1888844465275454  1.0000
