data_image0
_chemical_formula_structural       V4Cu4H42C42N12O12
_chemical_formula_sum              "V4 Cu4 H42 C42 N12 O12"
_cell_length_a       9.562622158816195
_cell_length_b       11.36941570177838
_cell_length_c       12.023117846439666
_cell_angle_alpha    71.22753494471233
_cell_angle_beta     81.94282596931676
_cell_angle_gamma    75.43871185171501

_space_group_name_H-M_alt    "P 1"
_space_group_IT_number       1

loop_
  _space_group_symop_operation_xyz
  'x, y, z'

loop_
  _atom_site_type_symbol
  _atom_site_label
  _atom_site_symmetry_multiplicity
  _atom_site_fract_x
  _atom_site_fract_y
  _atom_site_fract_z
  _atom_site_occupancy
  V   V1        1.0  0.013834512887555701  0.0865245522796059  0.15598042963780756  1.0000
  V   V2        1.0  0.9861723308439778  0.913470245106339  0.844014642431965  1.0000
  V   V3        1.0  0.11312283127740848  0.7816315791996687  0.12229099188475342  1.0000
  V   V4        1.0  0.8868795461592073  0.21836416367618489  0.8777034687241424  1.0000
  Cu  Cu1       1.0  0.3673197548574123  0.1731144769635122  0.061867567948247895  1.0000
  Cu  Cu2       1.0  0.6326806492764022  0.8268851607859772  0.9381342188012309  1.0000
  Cu  Cu3       1.0  0.004984170717598633  0.5272499958278587  0.2778124562613229  1.0000
  Cu  Cu4       1.0  0.9950164575341349  0.47274865551418793  0.7221862863904888  1.0000
  H   H1        1.0  0.6993018913498689  0.0468210697863469  0.08855030412416907  1.0000
  H   H2        1.0  0.30070191596298934  0.9531776058448854  0.9114505586659616  1.0000
  H   H3        1.0  0.053678260518779615  0.13699553677871992  0.6359077807311451  1.0000
  H   H4        1.0  0.9463179254397718  0.8630041197769103  0.364096151412049  1.0000
  H   H5        1.0  0.09029484710097792  0.3854134022637866  0.9967975714911145  1.0000
  H   H6        1.0  0.9097061273382112  0.6145881140135714  0.0032010656768975314  1.0000
  H   H7        1.0  0.6717662249728563  0.5908560650341387  0.6934085774373597  1.0000
  H   H8        1.0  0.3282328782118996  0.4091445083666371  0.30659140315970024  1.0000
  H   H9        1.0  0.5041565322323295  0.6460886380496049  0.844525367769435  1.0000
  H   H10       1.0  0.4958420952860366  0.35391383991045444  0.15547407136324407  1.0000
  H   H11       1.0  0.3274003016505135  0.7385267462777136  0.809635429432532  1.0000
  H   H12       1.0  0.6725996268169112  0.26147479603105245  0.19036581585257298  1.0000
  H   H13       1.0  0.11569082939986693  0.6344765840486418  0.86714319273932  1.0000
  H   H14       1.0  0.8843103863013372  0.36552398848103  0.13285654386834975  1.0000
  H   H15       1.0  0.6428120373209795  0.6162651664378062  0.29468100005359327  1.0000
  H   H16       1.0  0.3571864852719387  0.38373350283926294  0.7053196440025359  1.0000
  H   H17       1.0  0.4537201883684362  0.6542401938038297  0.27497430285600166  1.0000
  H   H18       1.0  0.5462776241537172  0.3457613408440992  0.7250263577110232  1.0000
  H   H19       1.0  0.7294791987867485  0.6071264441027182  0.48195133271433127  1.0000
  H   H20       1.0  0.2705201456600151  0.39287318555037826  0.5180497473223793  1.0000
  H   H21       1.0  0.5330974691202855  0.39246382269302427  0.9167764659055564  1.0000
  H   H22       1.0  0.4669024524894996  0.6075377025518377  0.08322312196461469  1.0000
  H   H23       1.0  0.13803380907231144  0.2476357784969352  0.265743222144799  1.0000
  H   H24       1.0  0.8619640137363052  0.7523657817468531  0.7342599245446235  1.0000
  H   H25       1.0  0.21732276658539015  0.7139224559228553  0.6332522821194358  1.0000
  H   H26       1.0  0.7826769206200126  0.2860800301335972  0.36674786372601176  1.0000
  H   H27       1.0  0.4179801546923302  0.0915005383728058  0.29702025771170065  1.0000
  H   H28       1.0  0.5820153109090003  0.9085019579578243  0.7029812048199915  1.0000
  H   H29       1.0  0.9453374472755626  0.3976748775673116  0.5463741462182908  1.0000
  H   H30       1.0  0.0546587352541722  0.6023247704563629  0.45362895721743257  1.0000
  H   H31       1.0  0.7805319767713145  0.7920529570901352  0.21901475139327428  1.0000
  H   H32       1.0  0.2194689030288829  0.20794477610008497  0.7809875768205925  1.0000
  H   H33       1.0  0.27468117275947185  0.723260139406044  0.4233567456522278  1.0000
  H   H34       1.0  0.7253176925920856  0.2767413862743737  0.5766429642126382  1.0000
  H   H35       1.0  0.32432284729085836  0.9335505864353807  0.6680357474759044  1.0000
  H   H36       1.0  0.675672852714847  0.0664509490836593  0.33196515708051066  1.0000
  H   H37       1.0  0.1889342390603375  0.012228618684765998  0.37541853799445585  1.0000
  H   H38       1.0  0.8110593484289125  0.9877729177053922  0.6245826105513502  1.0000
  H   H39       1.0  0.14751416511471402  0.9621581577056803  0.5311754873379539  1.0000
  H   H40       1.0  0.8524817761530059  0.037842434065680705  0.4688265166581117  1.0000
  H   H41       1.0  0.3236544373979767  0.8970556405668335  0.2053635787203588  1.0000
  H   H42       1.0  0.6763507757893876  0.10294590809610328  0.7946378852987407  1.0000
  C   C1        1.0  0.6329600257598784  0.978589035084269  0.13301524140328516  1.0000
  C   C2        1.0  0.36704214813174474  0.021407745390760596  0.8669872355480803  1.0000
  C   C3        1.0  0.055639971274430926  0.20071205288703448  0.5467855012490758  1.0000
  C   C4        1.0  0.9443617338084422  0.7992866492111759  0.45321809165283594  1.0000
  C   C5        1.0  0.18475856949170585  0.4251728924648149  0.9629462909732921  1.0000
  C   C6        1.0  0.8152424083762997  0.5748286323444916  0.03705317490218355  1.0000
  C   C7        1.0  0.4406894064987554  0.6520386770240307  0.6773104213777826  1.0000
  C   C8        1.0  0.5593092244484269  0.34796380946797717  0.32268984646236015  1.0000
  C   C9        1.0  0.5843538681917269  0.6211651294514126  0.6340043487511264  1.0000
  C   C10       1.0  0.4156447627554557  0.3788373570405952  0.36599591908901624  1.0000
  C   C11       1.0  0.4059173019996365  0.6512913350624104  0.8039908102232614  1.0000
  C   C12       1.0  0.594081328947553  0.3487111514295975  0.19600945761688135  1.0000
  C   C13       1.0  0.19558729824369445  0.5469434280675927  0.8983623374802148  1.0000
  C   C14       1.0  0.8044136796243111  0.4530580967417066  0.10163712839526795  1.0000
  C   C15       1.0  0.5391456553468146  0.6797869832746032  0.3087686363237267  1.0000
  C   C16       1.0  0.4608526259840888  0.320212629750145  0.691230908292745  1.0000
  C   C17       1.0  0.6168830580931158  0.6299185915130818  0.5151196625490114  1.0000
  C   C18       1.0  0.38311498883341244  0.37008198232325645  0.48488044004274394  1.0000
  C   C19       1.0  0.4157941590358761  0.42380628006871035  0.9256910593489208  1.0000
  C   C20       1.0  0.5842068188321293  0.576195244740596  0.07430840652655492  1.0000
  C   C21       1.0  0.10168175090458224  0.25726168537605787  0.35302233358058277  1.0000
  C   C22       1.0  0.8983152534789981  0.7427389230236513  0.6469812058357292  1.0000
  C   C23       1.0  0.32951627086784907  0.6879026345056544  0.6005898729127066  1.0000
  C   C24       1.0  0.6704823635081569  0.31209986051830896  0.3994112236348997  1.0000
  C   C25       1.0  0.4539487336780397  0.050935816476808796  0.38628414418955964  1.0000
  C   C26       1.0  0.5460469594700257  0.9490657019783272  0.6137151029519214  1.0000
  C   C27       1.0  0.5061814790929731  0.6681785574965035  0.4379227669030995  1.0000
  C   C28       1.0  0.4938165712623715  0.3318220248717836  0.5620781643961192  1.0000
  C   C29       1.0  0.002838356671780719  0.3292867390870811  0.5010990479707544  1.0000
  C   C30       1.0  0.9971575914535793  0.6707138697481838  0.4989046134402456  1.0000
  C   C31       1.0  0.3551636599698825  0.0125421833442871  0.4803106287016376  1.0000
  C   C32       1.0  0.6448294552818014  0.9874612661370961  0.5196908070872437  1.0000
  C   C33       1.0  0.6744697887319261  0.8534531827423992  0.19894455778195644  1.0000
  C   C34       1.0  0.32553060511543214  0.14654642941123797  0.8010547428451245  1.0000
  C   C35       1.0  0.36217748746192047  0.6951674822495307  0.482312494382242  1.0000
  C   C36       1.0  0.6378213813184603  0.3048340519628425  0.5176880441900877  1.0000
  C   C37       1.0  0.4018503257943992  0.9623331710529258  0.5946129820222552  1.0000
  C   C38       1.0  0.598144321381902  0.03766837343362539  0.40538887323631906  1.0000
  C   C39       1.0  0.19894548589862643  0.028025029765778697  0.4589743610085506  1.0000
  C   C40       1.0  0.8010493991108663  0.9719755624411307  0.5410277649822176  1.0000
  C   C41       1.0  0.43561701445138823  0.90567937375657  0.19215828280761107  1.0000
  C   C42       1.0  0.5643836240868013  0.09431930318133648  0.8078429459665983  1.0000
  N   N1        1.0  0.3227830674781771  0.34913089111849155  0.9794288201455215  1.0000
  N   N2        1.0  0.6772181482230267  0.6508696814111731  0.02057091646214802  1.0000
  N   N3        1.0  0.1164843380866003  0.15760278190415283  0.45219118062268376  1.0000
  N   N4        1.0  0.8835113653479283  0.8423987621468427  0.5478105526411949  1.0000
  N   N5        1.0  0.032337721936208715  0.36395804070348  0.3798418885133827  1.0000
  N   N6        1.0  0.9676603421344225  0.6360425757926224  0.6201623576156974  1.0000
  N   N7        1.0  0.5487684959730431  0.8091057837512851  0.23535337700553777  1.0000
  N   N8        1.0  0.4512334400853817  0.19089194900337964  0.764648829213634  1.0000
  N   N9        1.0  0.34180367146170454  0.5443794389236203  0.8761860831752982  1.0000
  N   N10       1.0  0.6581973098351243  0.4556220944176346  0.12381421140764809  1.0000
  N   N11       1.0  0.483492146484359  0.010362484920769098  0.12984149912761464  1.0000
  N   N12       1.0  0.5165122482779766  0.9896381118980884  0.8701603576183672  1.0000
  O   O1        1.0  0.9895740120571689  0.6890605897954103  0.18625199208607054  1.0000
  O   O2        1.0  0.010435147735798005  0.310933169120247  0.8137348196518486  1.0000
  O   O3        1.0  0.15712548649806735  0.15235088339016298  0.13431290776343727  1.0000
  O   O4        1.0  0.8428753727292104  0.8476467986083308  0.8656844482056341  1.0000
  O   O5        1.0  0.07392282754418747  0.9159871586309691  0.17727323711815046  1.0000
  O   O6        1.0  0.9260874193663895  0.0840066766367187  0.8227209109922667  1.0000
  O   O7        1.0  0.9191783833323016  0.11001513793856792  0.27507783277393827  1.0000
  O   O8        1.0  0.08082973734654797  0.8899786640724159  0.7249132444960009  1.0000
  O   O9        1.0  0.27734864306323465  0.6996956475587836  0.1528503989427463  1.0000
  O   O10       1.0  0.7226556159142775  0.30030106378950444  0.8471452043594994  1.0000
  O   O11       1.0  0.8975130516236833  0.16125135887988756  0.03376755030733136  1.0000
  O   O12       1.0  0.10249705895032696  0.838747228818477  0.9662242934399712  1.0000
