data_image0
_chemical_formula_structural       Al4H24C76N4Cl24O40
_chemical_formula_sum              "Al4 H24 C76 N4 Cl24 O40"
_cell_length_a       6.859039636968806
_cell_length_b       25.19517743573705
_cell_length_c       28.801497689419858
_cell_angle_alpha    89.46442200016804
_cell_angle_beta     89.03265126942554
_cell_angle_gamma    90.14321290393417

_space_group_name_H-M_alt    "P 1"
_space_group_IT_number       1

loop_
  _space_group_symop_operation_xyz
  'x, y, z'

loop_
  _atom_site_type_symbol
  _atom_site_label
  _atom_site_symmetry_multiplicity
  _atom_site_fract_x
  _atom_site_fract_y
  _atom_site_fract_z
  _atom_site_occupancy
  Al  Al1       1.0  0.22028994943894278  0.7480555134523783  0.2530284995123678  1.0000
  Al  Al2       1.0  0.7873794085489578  0.2535910456394532  0.7481602043600258  1.0000
  Al  Al3       1.0  0.7216920732687271  0.7496744287852337  0.2525702426127906  1.0000
  Al  Al4       1.0  0.2850811438467815  0.2551713707276378  0.7465079781204904  1.0000
  H   H1        1.0  0.3281860642194943  0.10733946608790747  0.5109748208120307  1.0000
  H   H2        1.0  0.7570917085074954  0.9096502933991887  0.47624080856695616  1.0000
  H   H3        1.0  0.276035265654734  0.9066911703974513  0.544596453810037  1.0000
  H   H4        1.0  0.7651932868805675  0.10028554841919401  0.4522525237424658  1.0000
  H   H5        1.0  0.1289984774699278  0.18642034944306826  0.9047170949458587  1.0000
  H   H6        1.0  0.8664420087434977  0.8190033079623548  0.09298715826479757  1.0000
  H   H7        1.0  0.806588596271638  0.0227376697469879  0.9223479084683884  1.0000
  H   H8        1.0  0.0693714757131048  0.9434292133690153  0.07860781080431417  1.0000
  H   H9        1.0  0.9034622083162276  0.08295271111752102  0.8365079503302651  1.0000
  H   H10       1.0  0.0871399774962569  0.9170074925792235  0.16163995454708405  1.0000
  H   H11       1.0  0.6422689244872827  0.6615765223525473  0.32951842980178714  1.0000
  H   H12       1.0  0.34571599467106756  0.3412433597448655  0.6649516740280104  1.0000
  H   H13       1.0  0.2833468898722913  0.6921117220542925  0.15583724558426573  1.0000
  H   H14       1.0  0.717004777357829  0.3059362706832118  0.8469804669454888  1.0000
  H   H15       1.0  0.3837057057063832  0.6342395355293889  0.0662023634352451  1.0000
  H   H16       1.0  0.6045849458590525  0.3678140851348887  0.9364357866630113  1.0000
  H   H17       1.0  0.5933031066322981  0.5465656988975812  0.07309934219080107  1.0000
  H   H18       1.0  0.43906045296800045  0.44779157064270697  0.8815076808347653  1.0000
  H   H19       1.0  0.5593052294446395  0.5869505174727935  0.15915443764142614  1.0000
  H   H20       1.0  0.34573978347835077  0.3560107824327545  0.8116106230626342  1.0000
  H   H21       1.0  0.4796410987496457  0.6812090414835129  0.23768088456431258  1.0000
  H   H22       1.0  0.5482423634159943  0.3229591530096201  0.7334498874162847  1.0000
  H   H23       1.0  0.9754797880985252  0.8189002208835705  0.25780654168389816  1.0000
  H   H24       1.0  0.03862918170390369  0.186996217531231  0.7611503511324215  1.0000
  C   C1        1.0  0.4643846898825004  0.8105550201001962  0.3150302179037539  1.0000
  C   C2        1.0  0.5440328816942923  0.19331804841149858  0.6847322248397132  1.0000
  C   C3        1.0  0.4774357707511712  0.811749345701884  0.18994476343225125  1.0000
  C   C4        1.0  0.5248079143959998  0.19154202247999316  0.809557959327293  1.0000
  C   C5        1.0  0.9721262601788325  0.6853654583484428  0.1904266642010057  1.0000
  C   C6        1.0  0.029654727642785907  0.31682346972110764  0.81183901041782  1.0000
  C   C7        1.0  0.9627172280832426  0.6871237630715752  0.31760613215727307  1.0000
  C   C8        1.0  0.03504444088090249  0.3157700768926119  0.6823435541808394  1.0000
  C   C9        1.0  0.13933666132464137  0.6398161897670606  0.3816924819964313  1.0000
  C   C10       1.0  0.839259436639516  0.36058511688348455  0.6204268188075162  1.0000
  C   C11       1.0  0.1428598249188084  0.5916290364936501  0.4071906486896139  1.0000
  C   C12       1.0  0.8251281286570064  0.4087139779207973  0.5950987846949118  1.0000
  C   C13       1.0  0.969439342423158  0.5769854577995872  0.43085587650241297  1.0000
  C   C14       1.0  0.9913454504992245  0.4250008572707672  0.5693385923456873  1.0000
  C   C15       1.0  0.7956106276545611  0.6029993941670357  0.4203492118511178  1.0000
  C   C16       1.0  0.1705780201880174  0.4005672190449517  0.5773157365954729  1.0000
  C   C17       1.0  0.7880114143924574  0.6295591635358023  0.3767645623654871  1.0000
  C   C18       1.0  0.18992743142253943  0.3732056639024109  0.6201393153111778  1.0000
  C   C19       1.0  0.9636554368351753  0.652726976285493  0.3593713396737853  1.0000
  C   C20       1.0  0.021665609428382006  0.34888873709623175  0.6401326425859889  1.0000
  C   C21       1.0  0.9782417983547659  0.46675679532452125  0.5332449697193198  1.0000
  C   C22       1.0  0.9717742074297179  0.5371521994765873  0.4686473918121265  1.0000
  C   C23       1.0  0.1315744941663013  0.644140088518711  0.12120412030280647  1.0000
  C   C24       1.0  0.8645491218144628  0.35433925094776714  0.881984139486647  1.0000
  C   C25       1.0  0.13183253719233792  0.6094555847721281  0.08353361741257707  1.0000
  C   C26       1.0  0.8614578971619409  0.38977137502286047  0.9189934572296605  1.0000
  C   C27       1.0  0.9727279045301528  0.5758186653877645  0.07626977486333428  1.0000
  C   C28       1.0  0.018887848660490595  0.4242503994532925  0.9259046513412554  1.0000
  C   C29       1.0  0.8105203089352173  0.5790914831962014  0.10643614237423547  1.0000
  C   C30       1.0  0.18312342951913513  0.4221416478149181  0.8963391319561321  1.0000
  C   C31       1.0  0.8065696535334012  0.6141697105978923  0.1439578800302144  1.0000
  C   C32       1.0  0.19112180346534302  0.3857531648338793  0.8599252686835113  1.0000
  C   C33       1.0  0.9690141810571973  0.6474605978192542  0.15204675207911575  1.0000
  C   C34       1.0  0.02975605563063511  0.35194928136041903  0.851688897678741  1.0000
  C   C35       1.0  0.872422870329558  0.5437712526455983  0.9976777346634191  1.0000
  C   C36       1.0  0.11595157975860101  0.4555826253185272  0.004804812676340499  1.0000
  C   C37       1.0  0.8878786569808242  0.5079293365937261  0.9607521210479103  1.0000
  C   C38       1.0  0.10361667205511081  0.49213691923693414  0.04124981077139009  1.0000
  C   C39       1.0  0.008662381742354305  0.46315759701088416  0.9641643234847732  1.0000
  C   C40       1.0  0.9815352091676603  0.5367530939151097  0.038073538681544485  1.0000
  C   C41       1.0  0.43307956367439  0.16366113811888996  0.6058506312814129  1.0000
  C   C42       1.0  0.608596617086434  0.8454703913091066  0.3888512165693782  1.0000
  C   C43       1.0  0.43122685641262143  0.12658473357026176  0.5696509213212905  1.0000
  C   C44       1.0  0.6216628312592789  0.8842060501424952  0.42352237968717077  1.0000
  C   C45       1.0  0.546707704989359  0.08069748182987983  0.5724205664426307  1.0000
  C   C46       1.0  0.4886891252707457  0.9264297572577006  0.4246357920241407  1.0000
  C   C47       1.0  0.6646057363484277  0.07256471610755  0.6111839764194684  1.0000
  C   C48       1.0  0.34404266659328897  0.9298385464546829  0.39098797034261407  1.0000
  C   C49       1.0  0.6629722146228616  0.10870242467192531  0.6479154897314032  1.0000
  C   C50       1.0  0.33402952753338166  0.8923904049381053  0.3553331803731793  1.0000
  C   C51       1.0  0.5467691358449258  0.15465687090800634  0.6451917105706995  1.0000
  C   C52       1.0  0.46726798245256873  0.8497934673308551  0.3541191604646272  1.0000
  C   C53       1.0  0.4341431333431344  0.9930208856432262  0.5413892329128628  1.0000
  C   C54       1.0  0.6028089645121641  0.0144713375666541  0.4552498930675384  1.0000
  C   C55       1.0  0.41948889693441765  0.955228813316552  0.506076148608308  1.0000
  C   C56       1.0  0.6208813657019476  0.05186997588045731  0.4908616123638437  1.0000
  C   C57       1.0  0.5044564284248878  0.9660976064183233  0.4621339278358504  1.0000
  C   C58       1.0  0.5347949229211368  0.041180174897419895  0.5347435881521105  1.0000
  C   C59       1.0  0.3612155279989011  0.154238508419688  0.8821095495409919  1.0000
  C   C60       1.0  0.6296805546251606  0.8489658339741697  0.11562258151845838  1.0000
  C   C61       1.0  0.3566490495977277  0.11726751410275685  0.918811448246373  1.0000
  C   C62       1.0  0.6277507422291253  0.8858567443820606  0.07871605403398968  1.0000
  C   C63       1.0  0.5027464592401499  0.0790035227752881  0.9241723228362984  1.0000
  C   C64       1.0  0.47418827715147677  0.9215811407328403  0.0725113077303448  1.0000
  C   C65       1.0  0.6576853705030813  0.0786457387859159  0.8923013846928779  1.0000
  C   C66       1.0  0.31789882944003267  0.9195661634945083  0.1039740933852897  1.0000
  C   C67       1.0  0.6679253579449522  0.11558225662690803  0.8553414249176966  1.0000
  C   C68       1.0  0.3189751958474005  0.8844279680470564  0.14240789763193354  1.0000
  C   C69       1.0  0.518618323366816  0.15338641780660822  0.8493648938256513  1.0000
  C   C70       1.0  0.47465867399827744  0.8486344802264797  0.14889264771557004  1.0000
  C   C71       1.0  0.38987040806737383  0.9913109316662629  0.9567927505479259  1.0000
  C   C72       1.0  0.5835187163029119  0.009409356744100702  0.04011011992308509  1.0000
  C   C73       1.0  0.3838307446710587  0.9530118645944584  0.9925746321121378  1.0000
  C   C74       1.0  0.5897695180043669  0.047819927519434216  0.004361061228024699  1.0000
  C   C75       1.0  0.4799109264172543  0.961773823364432  0.03448984283576809  1.0000
  C   C76       1.0  0.4939344285963472  0.03895879118817191  0.9623041583103313  1.0000
  N   N1        1.0  0.8342884492935311  0.49858593452840694  0.4678818931480959  1.0000
  N   N2        1.0  0.10850267654291912  0.5069542458690892  0.5355467883610457  1.0000
  N   N3        1.0  0.8379221275147799  0.46221595065262033  0.5012156047039935  1.0000
  N   N4        1.0  0.10520877161942369  0.5432542351693926  0.5022039186072077  1.0000
  Cl  Cl1       1.0  0.31364075938007835  0.6876988112299713  0.3863618283943494  1.0000
  Cl  Cl2       1.0  0.6695080866123035  0.3110051643000987  0.6187451696489674  1.0000
  Cl  Cl3       1.0  0.7630600120019507  0.5196767860314537  0.9104722529394065  1.0000
  Cl  Cl4       1.0  0.23600257097410088  0.4818950453696687  0.09068864664402547  1.0000
  Cl  Cl5       1.0  0.29527404215821207  0.22005314022081285  0.5991729258985214  1.0000
  Cl  Cl6       1.0  0.7672932920758129  0.7930035462974562  0.3923190624165257  1.0000
  Cl  Cl7       1.0  0.8126652151097604  0.017474609978833704  0.612891892612538  1.0000
  Cl  Cl8       1.0  0.1780361008872475  0.9809411680184683  0.3944236654937042  1.0000
  Cl  Cl9       1.0  0.7946200287637665  0.0946232024885845  0.6969440538306058  1.0000
  Cl  Cl10      1.0  0.16481263239866453  0.9018145398664573  0.3124255184851491  1.0000
  Cl  Cl11      1.0  0.32087658320152457  0.9781434287909577  0.593983628069445  1.0000
  Cl  Cl12      1.0  0.7046767962901869  0.03052436119962461  0.40160615794918897  1.0000
  Cl  Cl13      1.0  0.1627532347442298  0.11961123451278163  0.9581782809222117  1.0000
  Cl  Cl14      1.0  0.8262214646678956  0.8865684641489082  0.04001054353278019  1.0000
  Cl  Cl15      1.0  0.3342425539190971  0.548238601010077  0.4059921589745059  1.0000
  Cl  Cl16      1.0  0.6323547709188022  0.4513006978549187  0.5996234369575858  1.0000
  Cl  Cl17      1.0  0.26856160762259407  0.9806306788213348  0.9060077125633722  1.0000
  Cl  Cl18      1.0  0.7040823465128767  0.02023034691914921  0.09091438501361887  1.0000
  Cl  Cl19      1.0  0.2624964239089067  0.8940004302285446  0.9848586237050296  1.0000
  Cl  Cl20      1.0  0.7098280496292942  0.10684822914810613  0.012198273567058498  1.0000
  Cl  Cl21      1.0  0.6194251539130134  0.6104764959670207  0.46278029880426874  1.0000
  Cl  Cl22      1.0  0.3465944596603237  0.3993614606438528  0.5344093658197548  1.0000
  Cl  Cl23      1.0  0.7185951790799621  0.5976690378550843  0.9934320370551359  1.0000
  Cl  Cl24      1.0  0.2610194091227243  0.4004308908388765  0.0101482220139815  1.0000
  O   O1        1.0  0.6438267523164994  0.7972729552838375  0.20408864586920566  1.0000
  O   O2        1.0  0.3623074275076236  0.20854986874238085  0.7948581975035223  1.0000
  O   O3        1.0  0.30068493966469134  0.7918334067425409  0.3035904643117533  1.0000
  O   O4        1.0  0.7085544833187072  0.21003084596621593  0.6977621469587303  1.0000
  O   O5        1.0  0.12326115589451091  0.6972689641881403  0.2968976850745122  1.0000
  O   O6        1.0  0.8797513237393774  0.30530891456064074  0.7052041545764354  1.0000
  O   O7        1.0  0.31245779348794406  0.7985629774423658  0.20740120093114459  1.0000
  O   O8        1.0  0.6920961821074698  0.20415325755646313  0.7929744439115395  1.0000
  O   O9        1.0  0.1420786599058346  0.7033630881636557  0.20218935461333834  1.0000
  O   O10       1.0  0.8650377188252277  0.29673922966944843  0.7998823538990718  1.0000
  O   O11       1.0  0.6289952501866196  0.8003647083704877  0.2963993846453334  1.0000
  O   O12       1.0  0.37740488966750974  0.204867955894521  0.7015940277070809  1.0000
  O   O13       1.0  0.4717084854017842  0.7157857204186727  0.25229407651366387  1.0000
  O   O14       1.0  0.5366623070337014  0.2881551170618836  0.7479730622150524  1.0000
  O   O15       1.0  0.8127161127223843  0.6987222917393295  0.20972873065448275  1.0000
  O   O16       1.0  0.1923032278899157  0.3083385300048462  0.7898808837496957  1.0000
  O   O17       1.0  0.7939611083377685  0.7025383115462063  0.3031833561936209  1.0000
  O   O18       1.0  0.20732823730137537  0.30142026982717607  0.6957036386171964  1.0000
  O   O19       1.0  0.9724781866974724  0.7808102465674697  0.2534288863756941  1.0000
  O   O20       1.0  0.03723132225785258  0.22243105833702262  0.7476201925196548  1.0000
  O   O21       1.0  0.31398101892231983  0.13638900876087942  0.5330659882452335  1.0000
  O   O22       1.0  0.7647466118423909  0.8793359899500718  0.4553073641146098  1.0000
  O   O23       1.0  0.32257270224449297  0.9085590721241205  0.5122298128124427  1.0000
  O   O24       1.0  0.7197381927517058  0.09834411926674853  0.4846978113437429  1.0000
  O   O25       1.0  0.21983523560007967  0.19141450795107323  0.8783519101238609  1.0000
  O   O26       1.0  0.7762171546100661  0.8134725326783325  0.11934956191638686  1.0000
  O   O27       1.0  0.8085017411222353  0.0426079158584756  0.893145746930564  1.0000
  O   O28       1.0  0.16267657948790062  0.9549540932287928  0.10194012839584587  1.0000
  O   O29       1.0  0.822550448182298  0.11227372851461584  0.825336352062514  1.0000
  O   O30       1.0  0.16817338614038846  0.8876465400121704  0.17312242267167474  1.0000
  O   O31       1.0  0.6214854310643433  0.63348808384481  0.3541299306932472  1.0000
  O   O32       1.0  0.3614402501336544  0.3697036716349871  0.6405905081577641  1.0000
  O   O33       1.0  0.29574747305731813  0.6742154474525395  0.12506559245110785  1.0000
  O   O34       1.0  0.7038946437204744  0.32279620941114456  0.8779896601345454  1.0000
  O   O35       1.0  0.2918511252380043  0.6080229315118404  0.054287172198144176  1.0000
  O   O36       1.0  0.7036518170808964  0.39170497445784497  0.9485969174539688  1.0000
  O   O37       1.0  0.6498393739318189  0.5458744659035517  0.10403456715122418  1.0000
  O   O38       1.0  0.3338912277201729  0.4564746184873771  0.9034496311357925  1.0000
  O   O39       1.0  0.6466995476678649  0.6134732014616447  0.17268417155231924  1.0000
  O   O40       1.0  0.3562859734674646  0.38666676816632173  0.8329465422942588  1.0000
