data_image0
_chemical_formula_structural       Zn4H12C12N16O8
_chemical_formula_sum              "Zn4 H12 C12 N16 O8"
_cell_length_a       8.033476396127806
_cell_length_b       9.12665181188507
_cell_length_c       10.306277600901284
_cell_angle_alpha    104.0294087995163
_cell_angle_beta     89.99953974178297
_cell_angle_gamma    89.99966720530348

_space_group_name_H-M_alt    "P 1"
_space_group_IT_number       1

loop_
  _space_group_symop_operation_xyz
  'x, y, z'

loop_
  _atom_site_type_symbol
  _atom_site_label
  _atom_site_symmetry_multiplicity
  _atom_site_fract_x
  _atom_site_fract_y
  _atom_site_fract_z
  _atom_site_occupancy
  Zn  Zn1       1.0  0.9402147487522399  0.6868655260244696  0.4448115332836906  1.0000
  Zn  Zn2       1.0  0.44022649512654516  0.313140479794349  0.05519018515876441  1.0000
  Zn  Zn3       1.0  0.05977595600106869  0.31313119543233375  0.5551942146486013  1.0000
  Zn  Zn4       1.0  0.5597791470959522  0.6868695913046141  0.9448113462263663  1.0000
  H   H1        1.0  0.7620597175210904  0.823128255764779  0.21229461155520113  1.0000
  H   H2        1.0  0.26208870125822165  0.1768759945701532  0.2877205429513197  1.0000
  H   H3        1.0  0.23792974239643877  0.1768786269078433  0.7877130983644562  1.0000
  H   H4        1.0  0.7379343680187916  0.8231253847135847  0.7122909571780696  1.0000
  H   H5        1.0  0.7018919809383347  0.26686575523572736  0.24527065617666471  1.0000
  H   H6        1.0  0.2018627314125041  0.7331259635222126  0.2547240285619666  1.0000
  H   H7        1.0  0.2981223748562769  0.7331320100521239  0.7547323814613662  1.0000
  H   H8        1.0  0.7981105462752892  0.2668696006033286  0.7452805253743833  1.0000
  H   H9        1.0  0.789209225650758  0.383048815074929  0.3869851027806988  1.0000
  H   H10       1.0  0.2891834554804761  0.6169389827645874  0.11301116936346743  1.0000
  H   H11       1.0  0.21079766141743767  0.6169488367612533  0.6130140306209668  1.0000
  H   H12       1.0  0.7108060044562236  0.38305567923641354  0.8870009750426606  1.0000
  C   C1        1.0  0.9110499020408794  0.019015435268222802  0.5286125078430929  1.0000
  C   C2        1.0  0.4110428975002165  0.9809796105349803  0.9713556918370613  1.0000
  C   C3        1.0  0.0889507612633764  0.9809734339699223  0.47135484153722024  1.0000
  C   C4        1.0  0.5889440730972596  0.019014790390990303  0.0286088433216278  1.0000
  C   C5        1.0  0.7260408586788785  0.7075766469270235  0.20792083932927602  1.0000
  C   C6        1.0  0.22606029543358372  0.2924312174606882  0.2920942764456029  1.0000
  C   C7        1.0  0.27395233564205773  0.29242676355328  0.7920832883822301  1.0000
  C   C8        1.0  0.7739565498578144  0.7075736340241932  0.707920805901729  1.0000
  C   C9        1.0  0.702443899084578  0.48847302840486156  0.24774348992411183  1.0000
  C   C10       1.0  0.202441083534417  0.5115300333211154  0.25225532248288124  1.0000
  C   C11       1.0  0.29755551919696893  0.5115303536838453  0.7522596616964847  1.0000
  C   C12       1.0  0.7975583347421633  0.48847447779107983  0.7477480471357651  1.0000
  N   N1        1.0  0.7733726243980499  0.6269904570871745  0.29573515121752086  1.0000
  N   N2        1.0  0.27337497703404506  0.37301012749389884  0.20427242795388886  1.0000
  N   N3        1.0  0.22662679391851978  0.37300832379896326  0.7042642002115684  1.0000
  N   N4        1.0  0.7266294203763195  0.626991251856019  0.795739072248935  1.0000
  N   N5        1.0  0.6316416474752417  0.6268744838217374  0.11118780919881743  1.0000
  N   N6        1.0  0.13165954942261493  0.3731284045984041  0.38882695908034043  1.0000
  N   N7        1.0  0.36835403641292436  0.37313121306625874  0.8888177305654423  1.0000
  N   N8        1.0  0.8683560511074473  0.6268696727499548  0.6111868152835742  1.0000
  N   N9        1.0  0.6154447903457765  0.4842468635484068  0.13520135633510222  1.0000
  N   N10       1.0  0.11543955658036958  0.515745581379477  0.36479791251741744  1.0000
  N   N11       1.0  0.3845620966772714  0.515755446229413  0.8648035293909403  1.0000
  N   N12       1.0  0.8845561273975165  0.4842441957015211  0.6352006710083771  1.0000
  N   N13       1.0  0.7108575325811727  0.3719977602127216  0.3081624349445065  1.0000
  N   N14       1.0  0.21083959884413872  0.6279872059209028  0.19183379944288256  1.0000
  N   N15       1.0  0.2891530889051168  0.6279908310527701  0.6918339783916281  1.0000
  N   N16       1.0  0.789153595551234  0.37199926920706633  0.8081670582978547  1.0000
  O   O1        1.0  0.8772369426845188  0.1593886008321519  0.5717226169089002  1.0000
  O   O2        1.0  0.3772089285970567  0.8406153822385891  0.9282747046531841  1.0000
  O   O3        1.0  0.12277492361887002  0.8406075531589039  0.42826360961148424  1.0000
  O   O4        1.0  0.6227643491524332  0.15939084799202163  0.07171055580211322  1.0000
  O   O5        1.0  0.8143888264491893  0.9111486358304575  0.5286718628753064  1.0000
  O   O6        1.0  0.31437297602087716  0.0888613810715029  0.971325090822532  1.0000
  O   O7        1.0  0.1856267741163933  0.08885034358509358  0.4713343209551795  1.0000
  O   O8        1.0  0.6856040360116324  0.9111541650291598  0.02867167426683888  1.0000
