data_image0
_chemical_formula_structural       Al2H10C22N2O10F4
_chemical_formula_sum              "Al2 H10 C22 N2 O10 F4"
_cell_length_a       6.660850849859908
_cell_length_b       11.114489972427467
_cell_length_c       16.940756471384653
_cell_angle_alpha    85.01565599183645
_cell_angle_beta     83.83723458670732
_cell_angle_gamma    73.60316160532264

_space_group_name_H-M_alt    "P 1"
_space_group_IT_number       1

loop_
  _space_group_symop_operation_xyz
  'x, y, z'

loop_
  _atom_site_type_symbol
  _atom_site_label
  _atom_site_symmetry_multiplicity
  _atom_site_fract_x
  _atom_site_fract_y
  _atom_site_fract_z
  _atom_site_occupancy
  Al  Al1       1.0  0.5000049314292383  0.4999902575141845  0.5000051960725358  1.0000
  Al  Al2       1.0  1.4200922606386498e-06  0.49999532382510387  0.5000041472234358  1.0000
  H   H1        1.0  0.20363511665426157  0.6345510733750501  0.43309754316833693  1.0000
  H   H2        1.0  0.7963982996146232  0.3654068306514161  0.5668879945393499  1.0000
  H   H3        1.0  0.8412354635142096  0.5481946327306274  0.7337945538436514  1.0000
  H   H4        1.0  0.7765617463357374  0.5469692209249217  0.8823130361721211  1.0000
  H   H5        1.0  0.44509907783609054  0.45546448413469415  0.8990310489636144  1.0000
  H   H6        1.0  0.5549131255366148  0.5445200598938911  0.100971366279758  1.0000
  H   H7        1.0  0.22343671831684722  0.45307622179278445  0.11769543175554989  1.0000
  H   H8        1.0  0.1587522214162008  0.4518479642198513  0.2662127889980468  1.0000
  H   H9        1.0  0.25072587902243276  0.8718213702316716  0.5380765079031207  1.0000
  H   H10       1.0  0.7492683975973977  0.12817337148901228  0.4618979371569337  1.0000
  C   C1        1.0  0.6379228947207736  0.7262991502928244  0.5013073508050354  1.0000
  C   C2        1.0  0.797538841323103  0.4963624934327342  0.356444449059019  1.0000
  C   C3        1.0  0.3620817498878282  0.27369122022496134  0.4986880638744111  1.0000
  C   C4        1.0  0.20245863822719198  0.503634106189047  0.6435610507778547  1.0000
  C   C5        1.0  0.1759715696708639  0.5044199879109925  0.7322728037642037  1.0000
  C   C6        1.0  0.9713187584214042  0.5292450493327436  0.7710804235288008  1.0000
  C   C7        1.0  0.9350599107447053  0.5279415865319875  0.8530733897460436  1.0000
  C   C8        1.0  0.1069750599158823  0.5006910355405481  0.8996987789843657  1.0000
  C   C9        1.0  0.31195523163128763  0.476838805480547  0.8630123344760603  1.0000
  C   C10       1.0  0.3435776509418957  0.47859367334751823  0.7806209310867942  1.0000
  C   C11       1.0  0.688042883658369  0.5231596646330062  0.13699363755540617  1.0000
  C   C12       1.0  0.893030918778017  0.49932256741195147  0.10030610695203279  1.0000
  C   C13       1.0  0.06494508791382002  0.47208989646172483  0.1469312915444476  1.0000
  C   C14       1.0  0.02868418668862927  0.4707844972226879  0.22892562744164016  1.0000
  C   C15       1.0  0.8240177836775616  0.4955906165233299  0.26773478487621816  1.0000
  C   C16       1.0  0.6564228095489854  0.5214029656380461  0.21938383475780648  1.0000
  C   C17       1.0  0.4278423749306128  0.13333853824911301  0.49979473991506757  1.0000
  C   C18       1.0  0.5721517319893935  0.8666504543784439  0.5001829361516528  1.0000
  C   C19       1.0  0.29150400802755166  0.05749505877756181  0.5214108316760431  1.0000
  C   C20       1.0  0.7084944517019663  0.9424969969831593  0.47855999823939743  1.0000
  C   C21       1.0  0.36085972627172686  0.9276917170564262  0.5215399294492826  1.0000
  C   C22       1.0  0.6391180243847857  0.0723028914397261  0.47843589778715057  1.0000
  N   N1        1.0  0.0920162277504843  0.49474880815854055  0.9837213543210765  1.0000
  N   N2        1.0  0.9079899722784648  0.5052581434281862  0.016285605587420104  1.0000
  O   O1        1.0  0.4908165372236013  0.6727167582365041  0.5108177973894854  1.0000
  O   O2        1.0  0.9645904408148311  0.4826751716790767  0.3906225966603074  1.0000
  O   O3        1.0  0.16684619620646401  0.328540518994437  0.5076012104945633  1.0000
  O   O4        1.0  0.3865395083478163  0.48765897023884003  0.6090364313806447  1.0000
  O   O5        1.0  0.5091973164739727  0.3272677036918238  0.4891874955902438  1.0000
  O   O6        1.0  0.03540614040783651  0.5173233065113507  0.6093828574402522  1.0000
  O   O7        1.0  0.8331586508453842  0.6714533044902423  0.4924040698649605  1.0000
  O   O8        1.0  0.6134633902327238  0.5123263394651688  0.3909699328254774  1.0000
  O   O9        1.0  0.23331388282355192  0.5560467526498059  0.46512935835089303  1.0000
  O   O10       1.0  0.7666957643949033  0.4439309711083012  0.5348799945163877  1.0000
  F   F1        1.0  0.5457565668483538  0.45236366915131054  0.748626912428378  1.0000
  F   F2        1.0  0.4542487350623433  0.5476197724130145  0.251379425493603  1.0000
  F   F3        1.0  0.08490731116982891  0.10880019290783591  0.5442453175355695  1.0000
  F   F4        1.0  0.9150741565568197  0.8911956082297082  0.4557231913549842  1.0000
