data_image0
_chemical_formula_structural       Ba2H16C8N24O10
_chemical_formula_sum              "Ba2 H16 C8 N24 O10"
_cell_length_a       7.186008234907855
_cell_length_b       8.6067163428477
_cell_length_c       10.969535523470876
_cell_angle_alpha    95.88115185104142
_cell_angle_beta     109.11482608767088
_cell_angle_gamma    90.01362604752619

_space_group_name_H-M_alt    "P 1"
_space_group_IT_number       1

loop_
  _space_group_symop_operation_xyz
  'x, y, z'

loop_
  _atom_site_type_symbol
  _atom_site_label
  _atom_site_symmetry_multiplicity
  _atom_site_fract_x
  _atom_site_fract_y
  _atom_site_fract_z
  _atom_site_occupancy
  Ba  Ba1       1.0  0.3826352843607664  0.24997187952229893  0.9999744787657933  1.0000
  Ba  Ba2       1.0  0.6173658107970966  0.7500281469602541  2.4968447064631272e-05  1.0000
  H   H1        1.0  0.15062897011777207  0.22802606044351145  0.5567822071329831  1.0000
  H   H2        1.0  0.5935206428334682  0.2720985160632169  0.44312337908333904  1.0000
  H   H3        1.0  0.8493707351923588  0.7719762889998947  0.44322077734437226  1.0000
  H   H4        1.0  0.40647620430574694  0.7279050244657485  0.5568745252322886  1.0000
  H   H5        1.0  0.25832359392497745  0.3108905625261542  0.45015884015763435  1.0000
  H   H6        1.0  0.8078297364437715  0.18930533760033091  0.5496866400468221  1.0000
  H   H7        1.0  0.7416746866471938  0.6891129529837985  0.5498448431920337  1.0000
  H   H8        1.0  0.1921685288845936  0.810697032900393  0.45031147527502935  1.0000
  H   H9        1.0  0.2937318324368762  0.10956994199219852  0.4774428892741583  1.0000
  H   H10       1.0  0.8160120043052289  0.39060575526222874  0.5223766018079135  1.0000
  H   H11       1.0  0.7062694132333077  0.8904335829051038  0.5225587039655011  1.0000
  H   H12       1.0  0.18398769230989837  0.6093954531336367  0.4776199047630955  1.0000
  H   H13       1.0  0.9297540598514757  0.3333159914635289  0.0331734733757685  1.0000
  H   H14       1.0  0.8963974915952944  0.1665092690094099  0.9667221135112813  1.0000
  H   H15       1.0  0.07024859745905593  0.666686359443844  0.9668292407486522  1.0000
  H   H16       1.0  0.10360519191046082  0.8334930977447215  0.033276961098984294  1.0000
  C   C1        1.0  0.8937056144620498  0.2562879606294645  0.2773948772551906  1.0000
  C   C2        1.0  0.6162408383051455  0.24381953503549172  0.7225878584182795  1.0000
  C   C3        1.0  0.1062955701226826  0.7437143915267657  0.7226075171064326  1.0000
  C   C4        1.0  0.38376201535935195  0.7561863420184738  0.2774106325831697  1.0000
  C   C5        1.0  0.1917816163348363  0.20538921664991253  0.46884879691352677  1.0000
  C   C6        1.0  0.7226335182659438  0.29481286446405636  0.5310224975131136  1.0000
  C   C7        1.0  0.8082166707861375  0.7946143028217348  0.5311539765576045  1.0000
  C   C8        1.0  0.27736481469667496  0.7051906827394278  0.4689739068082376  1.0000
  N   N1        1.0  0.018738602456913608  0.16159995937774602  0.3564231047601326  1.0000
  N   N2        1.0  0.6621371394305342  0.3385311850033972  0.6435150775473348  1.0000
  N   N3        1.0  0.9812626366644605  0.8384035615578684  0.643579398358064  1.0000
  N   N4        1.0  0.337865598611863  0.6614723505301189  0.3564841058195044  1.0000
  N   N5        1.0  0.9616772302728336  0.011797121727070701  0.31221957113104554  1.0000
  N   N6        1.0  0.6492616626278861  0.4883192223380775  0.6877175840415648  1.0000
  N   N7        1.0  0.03832400884854082  0.9882063992085438  0.6877829319871511  1.0000
  N   N8        1.0  0.35073666378593066  0.5116843209037186  0.3122797301583305  1.0000
  N   N9        1.0  0.8062677922079045  0.015007331564589802  0.2092292196442642  1.0000
  N   N10       1.0  0.5969448066262969  0.48507108155295964  0.7907528606324022  1.0000
  N   N11       1.0  0.1937334469134697  0.9849961893710244  0.7907732834739323  1.0000
  N   N12       1.0  0.40305640415365923  0.514931286450036  0.20924589421505868  1.0000
  N   N13       1.0  0.7588400725362519  0.1634170746417425  0.18438277605777395  1.0000
  N   N14       1.0  0.574442483641306  0.3366485733523633  0.815626818286937  1.0000
  N   N15       1.0  0.24116117313393198  0.8365864502555597  0.8156188171818857  1.0000
  N   N16       1.0  0.425564624590649  0.6633537936168781  0.18437230573319852  1.0000
  N   N17       1.0  0.917625698426299  0.4143486419354901  0.3094771666930996  1.0000
  N   N18       1.0  0.6081366158013423  0.08574851583589552  0.6905476399063988  1.0000
  N   N19       1.0  0.0823740745180856  0.5856548842106762  0.6905241067837553  1.0000
  N   N20       1.0  0.39186454044197205  0.9142526833877229  0.3094510061844888  1.0000
  N   N21       1.0  0.8428486668573214  0.5045838727276292  0.21789567219659042  1.0000
  N   N22       1.0  0.624813398894645  0.995518339341892  0.782116230683471  1.0000
  N   N23       1.0  0.15715100356258196  0.49541731982147036  0.7821044738885805  1.0000
  N   N24       1.0  0.3751848184458808  0.004482866341142301  0.21788086600327022  1.0000
  O   O1        1.0  0.752910024486347  0.451912534465052  0.09722934475772861  1.0000
  O   O2        1.0  0.6553338983517492  0.048168643021909895  0.9027672776411041  1.0000
  O   O3        1.0  0.24708958484810487  0.5480874853429755  0.9027716024494057  1.0000
  O   O4        1.0  0.3446657306291244  0.9518313886711955  0.0972309399304053  1.0000
  O   O5        1.0  0.8627519678813655  0.6502775462237977  0.24797982951269412  1.0000
  O   O6        1.0  0.6147388113542576  0.8498407537004413  0.7520476892767507  1.0000
  O   O7        1.0  0.1372477570751798  0.349724815104679  0.7520204253290432  1.0000
  O   O8        1.0  0.38525062416813677  0.1501616282551481  0.24794759758975005  1.0000
  O   O9        1.0  0.9996991020102896  0.2498871255687689  0.9999199655080346  1.0000
  O   O10       1.0  0.00030356184904432296  0.7501152293002918  8.183873784871381e-05  1.0000
