data_image0
_chemical_formula_structural       Cu4H16C24N20
_chemical_formula_sum              "Cu4 H16 C24 N20"
_cell_length_a       3.630868991189168
_cell_length_b       13.091308021591141
_cell_length_c       17.51579560577413
_cell_angle_alpha    90.00098809655906
_cell_angle_beta     90.0012716227712
_cell_angle_gamma    91.06936926524112

_space_group_name_H-M_alt    "P 1"
_space_group_IT_number       1

loop_
  _space_group_symop_operation_xyz
  'x, y, z'

loop_
  _atom_site_type_symbol
  _atom_site_label
  _atom_site_symmetry_multiplicity
  _atom_site_fract_x
  _atom_site_fract_y
  _atom_site_fract_z
  _atom_site_occupancy
  Cu  Cu1       1.0  0.638446174033284  0.40348999537546604  0.5617804414874714  1.0000
  Cu  Cu2       1.0  0.3615595140505405  0.09650734148106468  0.06177997399997541  1.0000
  Cu  Cu3       1.0  0.3615578234728575  0.5965097741390152  0.4382194510171616  1.0000
  Cu  Cu4       1.0  0.6384416412830233  0.9034901299687593  0.9382204893965067  1.0000
  H   H1        1.0  0.9243271443165212  0.19464104559288128  0.5819695106866831  1.0000
  H   H2        1.0  0.07567803592291258  0.30535752236056624  0.08197217072272882  1.0000
  H   H3        1.0  0.07567412800536738  0.805359481759332  0.4180315236431938  1.0000
  H   H4        1.0  0.9243121306737548  0.6946406884582074  0.9180277217403021  1.0000
  H   H5        1.0  0.6768221385863882  0.4373965483152631  0.7235730002907419  1.0000
  H   H6        1.0  0.3231819488461555  0.0626022459958477  0.22357020459667615  1.0000
  H   H7        1.0  0.3231819174609356  0.5626047491604496  0.2764280340504754  1.0000
  H   H8        1.0  0.6768220193580489  0.9373967595313245  0.7764285460763958  1.0000
  H   H9        1.0  0.881919921842787  0.34194400350749277  0.8397257203421378  1.0000
  H   H10       1.0  0.11808027797972899  0.15805442065090597  0.33972266164347803  1.0000
  H   H11       1.0  0.11807856675365973  0.6580557537212216  0.16027531397639902  1.0000
  H   H12       1.0  0.8819292576753528  0.8419461251232649  0.6602760890522746  1.0000
  H   H13       1.0  0.1307053200488184  0.08867108411263301  0.6925580533046231  1.0000
  H   H14       1.0  0.8692898232986864  0.41132620699089995  0.19256056388553594  1.0000
  H   H15       1.0  0.8692904432693213  0.9113294309337476  0.30744241009937673  1.0000
  H   H16       1.0  0.13070588147827067  0.5886727800942495  0.8074387576818794  1.0000
  C   C1        1.0  0.9173064794229902  0.22420535320315335  0.6401725812103011  1.0000
  C   C2        1.0  0.0826940746565512  0.2757945543862164  0.1401703214774983  1.0000
  C   C3        1.0  0.08269479289889861  0.7757951741490672  0.359828453119576  1.0000
  C   C4        1.0  0.9173044137517935  0.7242052028023525  0.8598272873614762  1.0000
  C   C5        1.0  0.7835836610592041  0.3603616725939958  0.7193719625746838  1.0000
  C   C6        1.0  0.21641718133562196  0.1396362531331761  0.21937025365341614  1.0000
  C   C7        1.0  0.21641758199208988  0.6396380907776091  0.28062850083690455  1.0000
  C   C8        1.0  0.7835813656139125  0.8603650320166236  0.7806284970221429  1.0000
  C   C9        1.0  0.8964442590248823  0.3071522369807695  0.7833763882654596  1.0000
  C   C10       1.0  0.10355259461415052  0.1928471644270217  0.2833748576807694  1.0000
  C   C11       1.0  0.10355428808139783  0.6928490482024899  0.21662521697641077  1.0000
  C   C12       1.0  0.8964514320685383  0.8071533690480025  0.7166238930023712  1.0000
  C   C13       1.0  0.026653674528738198  0.2076133093542438  0.7752490957673077  1.0000
  C   C14       1.0  0.9733394444089712  0.2923836034915155  0.27524882050617805  1.0000
  C   C15       1.0  0.9733448140677083  0.7923864478744774  0.22475193855122916  1.0000
  C   C16       1.0  0.026661740163838498  0.7076146319322304  0.724751642895342  1.0000
  C   C17       1.0  0.0325980806715975  0.16585443550842885  0.7014029201451069  1.0000
  C   C18       1.0  0.9673953671868746  0.33414534867288387  0.20140373173219225  1.0000
  C   C19       1.0  0.9674031916502911  0.8341460918437847  0.29859811418477034  1.0000
  C   C20       1.0  0.032594974782547595  0.6658574459760583  0.7985950189345133  1.0000
  C   C21       1.0  0.15262391325023122  0.14949295977664434  0.8405569143320692  1.0000
  C   C22       1.0  0.847370839870706  0.35050470764018365  0.34055796344721057  1.0000
  C   C23       1.0  0.8473773005931734  0.8505060396277173  0.1594441199877394  1.0000
  C   C24       1.0  0.15263315760408602  0.6494950618676042  0.6594413581441574  1.0000
  N   N1        1.0  0.3708335664186322  0.028320032660985806  0.9061231565318411  1.0000
  N   N2        1.0  0.6291711418922504  0.47167917779167107  0.4061242174526286  1.0000
  N   N3        1.0  0.6291621383896738  0.9716789544308571  0.09387673594883243  1.0000
  N   N4        1.0  0.3708300718571067  0.5283198215926177  0.593875104127399  1.0000
  N   N5        1.0  0.28911184347713703  0.05453514989002881  0.8350096142518241  1.0000
  N   N6        1.0  0.7108878678740637  0.44546392774444854  0.3350107061327848  1.0000
  N   N7        1.0  0.7108866450879605  0.9454646073319992  0.16499084915345466  1.0000
  N   N8        1.0  0.28911337511453183  0.5545358356137626  0.6649886154522735  1.0000
  N   N9        1.0  0.1492972549919998  0.1827927970554271  0.9136140387883248  1.0000
  N   N10       1.0  0.8506971993888969  0.3172050364004164  0.4136118154984986  1.0000
  N   N11       1.0  0.8507039588514046  0.8172062023489416  0.08638699553149112  1.0000
  N   N12       1.0  0.14930401432910403  0.6827939629771862  0.5863869351682639  1.0000
  N   N13       1.0  0.2858670981632798  0.10610228235827893  0.9536594198212003  1.0000
  N   N14       1.0  0.7141345087356187  0.39389649594352966  0.45365928506227265  1.0000
  N   N15       1.0  0.7141313319233265  0.8938959469158974  0.0463410435740101  1.0000
  N   N16       1.0  0.28586673425296993  0.6061032674146887  0.5463400365227857  1.0000
  N   N17       1.0  0.7937612428165508  0.32061142742049503  0.6480178460287008  1.0000
  N   N18       1.0  0.2062428397120044  0.17938637830994247  0.14801717856525445  1.0000
  N   N19       1.0  0.20624281323078006  0.6793898700552178  0.3519831883125165  1.0000
  N   N20       1.0  0.7937556195511489  0.8206126149247766  0.8519821430084705  1.0000
