data_image0
_chemical_formula_structural       Zn4H24C76Br16N8Cl8O16
_chemical_formula_sum              "Zn4 H24 C76 Br16 N8 Cl8 O16"
_cell_length_a       21.476413133961294
_cell_length_b       21.550492041143944
_cell_length_c       22.226401919028007
_cell_angle_alpha    60.6305480006809
_cell_angle_beta     63.48344234769949
_cell_angle_gamma    89.9672512794428

_space_group_name_H-M_alt    "P 1"
_space_group_IT_number       1

loop_
  _space_group_symop_operation_xyz
  'x, y, z'

loop_
  _atom_site_type_symbol
  _atom_site_label
  _atom_site_symmetry_multiplicity
  _atom_site_fract_x
  _atom_site_fract_y
  _atom_site_fract_z
  _atom_site_occupancy
  Zn  Zn1       1.0  0.5431597726881635  0.0423486740651526  0.9110327425166032  1.0000
  Zn  Zn2       1.0  0.4593175350968367  0.9623500291107164  0.08963332356648834  1.0000
  Zn  Zn3       1.0  0.9621810401843761  0.4521249791168529  0.08818707699708726  1.0000
  Zn  Zn4       1.0  0.04307695183756982  0.5523093602815834  0.9129251567463186  1.0000
  H   H1        1.0  0.7142377075160057  0.16359761387676033  0.8911168386314327  1.0000
  H   H2        1.0  0.8593004591533601  0.2727692352246649  0.10204966472689134  1.0000
  H   H3        1.0  0.8773359067941655  0.45800607243278785  0.8879689876393609  1.0000
  H   H4        1.0  0.7919415379240107  0.37497769175984524  0.8923136756308733  1.0000
  H   H5        1.0  0.5554445796516279  0.1107978955497231  0.12597908809928515  1.0000
  H   H6        1.0  0.6420561129703161  0.1972397624034059  0.11633540621163259  1.0000
  H   H7        1.0  0.4331453352574428  0.8845026574117442  0.9118556844499818  1.0000
  H   H8        1.0  0.107632426202855  0.5310394857953611  0.1432239042431149  1.0000
  H   H9        1.0  0.14758778332367237  0.7170973974575788  0.9168893174267719  1.0000
  H   H10       1.0  0.2283527504136487  0.79583350940851  0.9211758845175027  1.0000
  H   H11       1.0  0.26619081345504725  0.8145261151461013  0.15069234561913447  1.0000
  H   H12       1.0  0.18780657262797013  0.73101109074031  0.1487991333348616  1.0000
  H   H13       1.0  0.40092276936850624  0.1781124019226539  0.8533909976995772  1.0000
  H   H14       1.0  0.06564826528606461  0.2811084246873037  0.09702865697175868  1.0000
  H   H15       1.0  0.2258215806608206  0.457871449964415  0.857202778707382  1.0000
  H   H16       1.0  0.30905274365705543  0.377531691070395  0.8539104065624766  1.0000
  H   H17       1.0  0.36331494220879534  0.13803777389326652  0.07798153274259784  1.0000
  H   H18       1.0  0.27651584062493845  0.2147910419668975  0.07793633410800277  1.0000
  H   H19       1.0  0.6320443999741984  0.8591587269396329  0.8977789739444756  1.0000
  H   H20       1.0  0.7764904087907496  0.542528780966741  0.09545871827163659  1.0000
  H   H21       1.0  0.952239605715576  0.7400985787922282  0.9003932809410243  1.0000
  H   H22       1.0  0.8639587145809103  0.8160484443606606  0.9028995433279404  1.0000
  H   H23       1.0  0.6354705125863161  0.8579018733178285  0.09037459154379224  1.0000
  H   H24       1.0  0.7184025685355666  0.7762637455585095  0.09113404585389139  1.0000
  C   C1        1.0  0.4018003412504357  0.9071587671042067  0.029468871191404757  1.0000
  C   C2        1.0  0.43842365395471466  0.10610982105374231  0.9663936070291255  1.0000
  C   C3        1.0  0.5790253381506147  0.0789134699467553  0.01476205416213354  1.0000
  C   C4        1.0  0.5831014360492334  0.9161962585515652  0.9899083354136026  1.0000
  C   C5        1.0  0.09272172241262673  0.42444262271329336  0.9828396106168564  1.0000
  C   C6        1.0  0.07350680906451158  0.5720323478406969  0.027733411206923995  1.0000
  C   C7        1.0  0.9223531486839107  0.5913830288888492  0.9957114704976174  1.0000
  C   C8        1.0  0.9217383798612178  0.4189624244784653  0.9961402019135185  1.0000
  C   C9        1.0  0.8122910896225761  0.3659719631663165  0.2567128586182577  1.0000
  C   C10       1.0  0.7652236993540172  0.3381103786637638  0.33857304065311655  1.0000
  C   C11       1.0  0.7940180873947611  0.3199998390992462  0.3890129346401632  1.0000
  C   C12       1.0  0.8700748365456903  0.33782466331588523  0.3531667199297742  1.0000
  C   C13       1.0  0.9125036582137938  0.36298183473457607  0.2714389442165697  1.0000
  C   C14       1.0  0.6280175664708167  0.1720175639963486  0.6415218640827758  1.0000
  C   C15       1.0  0.7044289917649638  0.19314587789209975  0.6029146294558669  1.0000
  C   C16       1.0  0.735529090566061  0.16536921231483603  0.6517058518177022  1.0000
  C   C17       1.0  0.6903059240284435  0.12448976227037178  0.7356370754575818  1.0000
  C   C18       1.0  0.5876126055677772  0.12443660051054908  0.7259486653035905  1.0000
  C   C19       1.0  0.18278954828883093  0.6321850797353861  0.7412878127331834  1.0000
  C   C20       1.0  0.22583327054799443  0.655082181334187  0.660459058431641  1.0000
  C   C21       1.0  0.19557830843710636  0.6821812311787241  0.6110320303718452  1.0000
  C   C22       1.0  0.12024782142279385  0.6731468207492739  0.6479962191463569  1.0000
  C   C23       1.0  0.08011981163851806  0.6433413659789055  0.7312069489603413  1.0000
  C   C24       1.0  0.36738036726632833  0.823650989107371  0.36167009201984257  1.0000
  C   C25       1.0  0.2918281046655835  0.8137374105790371  0.397742273304658  1.0000
  C   C26       1.0  0.2642866219930937  0.8517677615829911  0.34686304868124973  1.0000
  C   C27       1.0  0.3116839897844983  0.8949425960875743  0.2632877068510169  1.0000
  C   C28       1.0  0.41005890642513526  0.8662735047949752  0.27714194403404224  1.0000
  C   C29       1.0  0.6297564874909228  0.1317406906522507  0.009267105137837463  1.0000
  C   C30       1.0  0.8730695920976502  0.3703243178843394  0.9950173122543327  1.0000
  C   C31       1.0  0.6986682930603295  0.1707975425840829  0.9406115176896672  1.0000
  C   C32       1.0  0.7473998843000091  0.21755203342506488  0.9364449558386237  1.0000
  C   C33       1.0  0.8447292945984729  0.2948274023078953  0.05588894996577648  1.0000
  C   C34       1.0  0.7990336654138944  0.24844932947240753  0.05653380024212126  1.0000
  C   C35       1.0  0.8547334723573172  0.3991348678211751  0.935289220674974  1.0000
  C   C36       1.0  0.8075678467460748  0.3525629317905228  0.9377283731654268  1.0000
  C   C37       1.0  0.6093483002928651  0.14136745446550236  0.0727849977512988  1.0000
  C   C38       1.0  0.6578818430314399  0.18931075000073597  0.0671950997701173  1.0000
  C   C39       1.0  0.7282270115249219  0.22788349265167795  0.9996459356633022  1.0000
  C   C40       1.0  0.7787926549270026  0.27629353308699933  0.9978894698098342  1.0000
  C   C41       1.0  0.3542646761563121  0.8547934389156707  0.03127116582442108  1.0000
  C   C42       1.0  0.12215469716839074  0.6194170461927656  0.030132060915803956  1.0000
  C   C43       1.0  0.3795395684377779  0.8501358245427324  0.9641490540158273  1.0000
  C   C44       1.0  0.3367583230149975  0.8008048001426573  0.9649803893058428  1.0000
  C   C45       1.0  0.13467466998596928  0.588966082280585  0.09407270793904135  1.0000
  C   C46       1.0  0.18326071225887833  0.6322704158627985  0.09373940886354859  1.0000
  C   C47       1.0  0.15720291768526112  0.6938822203793722  0.9668787309884477  1.0000
  C   C48       1.0  0.20285354990131316  0.7372867825395205  0.9690887964286713  1.0000
  C   C49       1.0  0.28542474015833363  0.8106893645166482  0.09855027920929148  1.0000
  C   C50       1.0  0.24223938898914102  0.7637371582776353  0.09741786836755743  1.0000
  C   C51       1.0  0.2665233383908827  0.7569856368753278  0.031246554880944195  1.0000
  C   C52       1.0  0.21781042460206385  0.7078269498580667  0.031821096542913076  1.0000
  C   C53       1.0  0.3879370241516114  0.15400663797049666  0.965271601307293  1.0000
  C   C54       1.0  0.1410156214025804  0.37482486214793903  0.9775887524314512  1.0000
  C   C55       1.0  0.3732801622468429  0.18586898578455896  0.9028639948414746  1.0000
  C   C56       1.0  0.32174227418777707  0.22548281197988024  0.9054615922655099  1.0000
  C   C57       1.0  0.11864517344758242  0.301918023376949  0.043196861375754673  1.0000
  C   C58       1.0  0.16387742439327008  0.25590764120865117  0.03906857109755886  1.0000
  C   C59       1.0  0.20900032705805674  0.4012185124260981  0.9083808969711026  1.0000
  C   C60       1.0  0.2549107082486728  0.35589284101614993  0.9064669398324339  1.0000
  C   C61       1.0  0.35204744466397386  0.1636153825109545  0.029171877255592428  1.0000
  C   C62       1.0  0.303086868244101  0.20570075862391948  0.029325858338054865  1.0000
  C   C63       1.0  0.2859486659189514  0.23715316070666861  0.96823152915487  1.0000
  C   C64       1.0  0.2338696178667519  0.2822018387797057  0.9713512837067808  1.0000
  C   C65       1.0  0.628934610657801  0.8635234465322625  0.9940216381771092  1.0000
  C   C66       1.0  0.8696910180505952  0.6369846455388171  0.9979022267555917  1.0000
  C   C67       1.0  0.6500732244518019  0.8401035976765171  0.9409910163563209  1.0000
  C   C68       1.0  0.693946576339073  0.7922562240324494  0.9441308663202216  1.0000
  C   C69       1.0  0.7955546066717005  0.6023989757121839  0.05283286173410316  1.0000
  C   C70       1.0  0.7465747375326545  0.6448016988524401  0.051580161632422364  1.0000
  C   C71       1.0  0.8943826609703223  0.7140101972785757  0.9431534085676386  1.0000
  C   C72       1.0  0.8451120905696358  0.7558900778068463  0.9443965339820648  1.0000
  C   C73       1.0  0.6524026806510436  0.839380194983903  0.04929016277638004  1.0000
  C   C74       1.0  0.6981752811012851  0.7936757407553755  0.049862744756133164  1.0000
  C   C75       1.0  0.7196486931755431  0.7690126483840628  0.9976919343328915  1.0000
  C   C76       1.0  0.7703806603060741  0.722242048033024  0.9980690153175824  1.0000
  Br  Br1       1.0  0.011745214725713998  0.3687416014278639  0.2269084349803804  1.0000
  Br  Br2       1.0  0.9151769664864702  0.33566709821646157  0.40939288190340034  1.0000
  Br  Br3       1.0  0.7728433869908855  0.38203276256038526  0.1916860438392189  1.0000
  Br  Br4       1.0  0.6650936404337601  0.3256993583839148  0.379746631072528  1.0000
  Br  Br5       1.0  0.5801345129326165  0.20048323019981498  0.583399931964436  1.0000
  Br  Br6       1.0  0.48711818616992286  0.08286825800648501  0.7793699261668078  1.0000
  Br  Br7       1.0  0.8365866853207535  0.1829827553489807  0.6040539609719741  1.0000
  Br  Br8       1.0  0.7319815308246546  0.0948313005867618  0.8004723209972224  1.0000
  Br  Br9       1.0  0.9802524732540975  0.6338651743703493  0.781257844179727  1.0000
  Br  Br10      1.0  0.0725189161378808  0.6934831486469051  0.5900381893387561  1.0000
  Br  Br11      1.0  0.2271947034773945  0.6180549600638442  0.8013927489896986  1.0000
  Br  Br12      1.0  0.32160035870370524  0.6482414432475069  0.6202942029515339  1.0000
  Br  Br13      1.0  0.41230411769749514  0.7873906102292025  0.42278903152772046  1.0000
  Br  Br14      1.0  0.5099962016285958  0.8754774741980356  0.226385530046599  1.0000
  Br  Br15      1.0  0.16475807297787526  0.8445744208200522  0.3919021449019907  1.0000
  Br  Br16      1.0  0.276010656168758  0.9493040248025795  0.19544033378858205  1.0000
  N   N1        1.0  0.8844983408965135  0.3784712124275699  0.2240099412990799  1.0000
  N   N2        1.0  0.7444664976190297  0.2888833674404552  0.47281600273093  1.0000
  N   N3        1.0  0.7528243673586063  0.22985242270370773  0.5185679273301601  1.0000
  N   N4        1.0  0.6178474689736433  0.10448201294940417  0.7716017204467958  1.0000
  N   N5        1.0  0.11106952444914948  0.6241793331810044  0.7763710009210879  1.0000
  N   N6        1.0  0.24295139332791393  0.712970251964542  0.5268523652407138  1.0000
  N   N7        1.0  0.2429772570239735  0.7777495738041367  0.4820358338319008  1.0000
  N   N8        1.0  0.3828479938904011  0.9006882720043664  0.22955621409465682  1.0000
  Cl  Cl1       1.0  0.8339694017127927  0.2606258287608085  0.8519006487549486  1.0000
  Cl  Cl2       1.0  0.7693854334626521  0.1543632914402338  0.13090943684508005  1.0000
  Cl  Cl3       1.0  0.3743426632615155  0.7935237637138074  0.8820601218155055  1.0000
  Cl  Cl4       1.0  0.2016122049903686  0.5889169146552504  0.17129824608271346  1.0000
  Cl  Cl5       1.0  0.30108438631924633  0.25765554762404014  0.8298744651365906  1.0000
  Cl  Cl6       1.0  0.1301657823659994  0.1639347852112678  0.11997697688283174  1.0000
  Cl  Cl7       1.0  0.7173160640617341  0.7616198182395878  0.8798340257092218  1.0000
  Cl  Cl8       1.0  0.6545060394985143  0.6004252770842128  0.11733613096048147  1.0000
  O   O1        1.0  0.44860204052869085  0.9625256504177669  0.9610521120114582  1.0000
  O   O2        1.0  0.39135577590197107  0.8918867655710229  0.09732939633328616  1.0000
  O   O3        1.0  0.42548828064532546  0.0546178662678969  0.035251899663918965  1.0000
  O   O4        1.0  0.48923013610559  0.1196292913079731  0.8988152414732298  1.0000
  O   O5        1.0  0.5251236896871134  0.032127773621368816  0.08502599807894025  1.0000
  O   O6        1.0  0.5938185437379104  0.08395454632537991  0.9501482806208866  1.0000
  O   O7        1.0  0.5906425308249296  0.9608153999327196  0.920800505354478  1.0000
  O   O8        1.0  0.5420749110655763  0.9135920466715248  0.05396150442546605  1.0000
  O   O9        1.0  0.05241656726344251  0.41328480940564555  0.05181355983086178  1.0000
  O   O10       1.0  0.09692347743362718  0.4742449852331773  0.9171989261453674  1.0000
  O   O11       1.0  0.0924000708494503  0.5851838615551159  0.9588459968398905  1.0000
  O   O12       1.0  0.01806365992317188  0.5222042916566282  0.09449367870729468  1.0000
  O   O13       1.0  0.9817466376342168  0.620052018621088  0.9286770821969126  1.0000
  O   O14       1.0  0.9035733620713914  0.5280653911808955  0.05911501135510357  1.0000
  O   O15       1.0  0.9215221706894781  0.3911712728190864  0.06187632592076399  1.0000
  O   O16       1.0  0.958339710934432  0.4833738765009059  0.933167868733214  1.0000
