data_image0
_chemical_formula_structural       Cd3H38C48N8O22
_chemical_formula_sum              "Cd3 H38 C48 N8 O22"
_cell_length_a       8.92735431109593
_cell_length_b       10.200998293493713
_cell_length_c       15.473540089664596
_cell_angle_alpha    107.35674834642488
_cell_angle_beta     97.17720457368804
_cell_angle_gamma    105.98987876291622

_space_group_name_H-M_alt    "P 1"
_space_group_IT_number       1

loop_
  _space_group_symop_operation_xyz
  'x, y, z'

loop_
  _atom_site_type_symbol
  _atom_site_label
  _atom_site_symmetry_multiplicity
  _atom_site_fract_x
  _atom_site_fract_y
  _atom_site_fract_z
  _atom_site_occupancy
  Cd  Cd1       1.0  0.4999988729645538  0.9999972161389439  0.4999996782951116  1.0000
  Cd  Cd2       1.0  0.883285973291109  0.5616533112387928  0.5904238779878527  1.0000
  Cd  Cd3       1.0  0.11671851124216912  0.43834732989033404  0.4095765295378301  1.0000
  H   H1        1.0  0.9827030353947279  0.6044607308272276  0.9517180325667027  1.0000
  H   H2        1.0  0.017293861051143687  0.39553441875435874  0.048281385854693305  1.0000
  H   H3        1.0  0.6610186408802861  0.18595097717707884  0.7490490345382028  1.0000
  H   H4        1.0  0.3389907262850472  0.8140442998437507  0.25094549580548897  1.0000
  H   H5        1.0  0.06800064704510328  0.15054901388614175  0.6385816988291566  1.0000
  H   H6        1.0  0.9320015724594984  0.8494516076219512  0.3614185407857633  1.0000
  H   H7        1.0  0.17970940998350224  0.8182951562607457  0.6228856921299339  1.0000
  H   H8        1.0  0.8202943210430931  0.1817065544458671  0.3771174573797467  1.0000
  H   H9        1.0  0.09650694887837831  0.8454436661913078  0.7053394428508781  1.0000
  H   H10       1.0  0.9034944966465306  0.15455477267866508  0.2946622479359888  1.0000
  H   H11       1.0  0.19442499394774873  0.8232771074390541  0.9736176091218526  1.0000
  H   H12       1.0  0.8055700427553492  0.1767223628022307  0.02638317521267201  1.0000
  H   H13       1.0  0.3163012090904688  0.0886413561545822  0.027642452977431703  1.0000
  H   H14       1.0  0.6836945767653831  0.9113570380013697  0.9723575265687501  1.0000
  H   H15       1.0  0.9740733337323209  0.1067824955085754  0.811462706137867  1.0000
  H   H16       1.0  0.025922836936409416  0.8932169867125095  0.18853751642016187  1.0000
  H   H17       1.0  0.8484128858623804  0.8384375264969677  0.7582577386801715  1.0000
  H   H18       1.0  0.15158403541042287  0.16156088180806452  0.24174103335762714  1.0000
  H   H19       1.0  0.3817773063708998  0.4528601510442271  0.02877026521890258  1.0000
  H   H20       1.0  0.6182233943551764  0.5471393704189321  0.9712302931606587  1.0000
  H   H21       1.0  0.4543330996782444  0.30066653692547607  0.0009209965334590916  1.0000
  H   H22       1.0  0.545667601047832  0.6993329845376833  0.9990795618461092  1.0000
  H   H23       1.0  0.33499182916219894  0.32237940316023384  0.08567887175193793  1.0000
  H   H24       1.0  0.6650077375982377  0.6776201063231183  0.9143222484041261  1.0000
  H   H25       1.0  0.4617554139445232  0.4929847245897746  0.4134934186741077  1.0000
  H   H26       1.0  0.5382468041087733  0.5070158947490314  0.5865074666726926  1.0000
  H   H27       1.0  0.5992343226436533  0.5508341807407006  0.29552152766355283  1.0000
  H   H28       1.0  0.40076449931794406  0.4491664113358382  0.7044784600852125  1.0000
  H   H29       1.0  0.5735779519149703  0.1024912777613096  0.1772532168074505  1.0000
  H   H30       1.0  0.42642730079276703  0.8975115373288032  0.8227483224738209  1.0000
  H   H31       1.0  0.4368678412876364  0.04593597947619799  0.2981605180164806  1.0000
  H   H32       1.0  0.5631392916358849  0.9540657671698156  0.7018409461637063  1.0000
  H   H33       1.0  0.7758783228505807  0.48899363730196643  0.09704914395344841  1.0000
  H   H34       1.0  0.2241231694255816  0.5110113146763453  0.9029525455299776  1.0000
  H   H35       1.0  0.8196336792303852  0.5681474955374954  0.22167568184969613  1.0000
  H   H36       1.0  0.1803674296842033  0.43185637054497045  0.7783251188900095  1.0000
  H   H37       1.0  0.6286465724266109  0.54264131032064  0.1542427456944893  1.0000
  H   H38       1.0  0.37135528418942704  0.4573614775072059  0.8457578959887471  1.0000
  C   C1        1.0  0.70026295563936  0.3124720017503719  0.6512191560491091  1.0000
  C   C2        1.0  0.2997373646277595  0.6875264381555011  0.348779222122964  1.0000
  C   C3        1.0  0.7930694317414932  0.4315220878693892  0.7397996697263736  1.0000
  C   C4        1.0  0.20693088997693113  0.568476354205771  0.26019806271381907  1.0000
  C   C5        1.0  0.8325206717998556  0.4308960100159637  0.8297186899762466  1.0000
  C   C6        1.0  0.16747926365437854  0.5691013418247763  0.17027944518397226  1.0000
  C   C7        1.0  0.7906459952617199  0.3189671727404359  0.8722707685782893  1.0000
  C   C8        1.0  0.20935844832553846  0.6810269639574854  0.12772705732330536  1.0000
  C   C9        1.0  0.9395490431304766  0.6543284548793054  0.8277756998796804  1.0000
  C   C10       1.0  0.060447126086948785  0.34567102517249276  0.1722251684102289  1.0000
  C   C11       1.0  0.015593760737729735  0.8114324529641763  0.8605835204942808  1.0000
  C   C12       1.0  0.984403157632457  0.18856595100229606  0.13941654300727893  1.0000
  C   C13       1.0  0.14580084411937833  0.8843296164552826  0.9373697572771107  1.0000
  C   C14       1.0  0.8541949402851615  0.11566877553138258  0.06263086800095147  1.0000
  C   C15       1.0  0.2153642132868114  0.035002648666463194  0.9678734104498689  1.0000
  C   C16       1.0  0.784632703632063  0.9649957531307222  0.03212729878357831  1.0000
  C   C17       1.0  0.1538485317907003  0.11492908382652442  0.9218844275692248  1.0000
  C   C18       1.0  0.8461487699410668  0.8850704060357941  0.07811652467606932  1.0000
  C   C19       1.0  0.0222352920654885  0.043270279587460395  0.8456128231502477  1.0000
  C   C20       1.0  0.977762758819033  0.9567281341895255  0.15438732430669694  1.0000
  C   C21       1.0  0.9537457912499647  0.8932421534517586  0.8155681607735447  1.0000
  C   C22       1.0  0.046251127120228816  0.10675625051470658  0.184431902728015  1.0000
  C   C23       1.0  0.3543621065039488  0.33764095310707626  0.019976244028882196  1.0000
  C   C24       1.0  0.6456382094092419  0.6623574802909431  0.9800240713388321  1.0000
  C   C25       1.0  0.21288431481405473  0.0478421629482071  0.5855809289292466  1.0000
  C   C26       1.0  0.7871152563003038  0.9521573530429992  0.41441825403116894  1.0000
  C   C27       1.0  0.2440430210125584  0.1436543544192617  0.5313134458740336  1.0000
  C   C28       1.0  0.7559610991808443  0.856348450860338  0.46868800945185285  1.0000
  C   C29       1.0  0.18280526585330392  0.25380594617666224  0.525138840325873  1.0000
  C   C30       1.0  0.8171999868544334  0.7461968689134507  0.4748626989553983  1.0000
  C   C31       1.0  0.07194827995947153  0.314988328076332  0.5735641516150949  1.0000
  C   C32       1.0  0.9280554568723575  0.6850133913074075  0.4264364149670571  1.0000
  C   C33       1.0  0.34671834282397646  0.23304247517143034  0.4320015357216533  1.0000
  C   C34       1.0  0.6532850091949598  0.766958156147183  0.5679987878486444  1.0000
  C   C35       1.0  0.43733566355397374  0.26462005310447984  0.36410147889424854  1.0000
  C   C36       1.0  0.5626676884649698  0.7353805782141265  0.6358988446760491  1.0000
  C   C37       1.0  0.48440614468872684  0.406201776116376  0.36155571475702436  1.0000
  C   C38       1.0  0.5155960733645701  0.5937988432224302  0.638445170589776  1.0000
  C   C39       1.0  0.5622935638882893  0.4392840574395364  0.2943878098476064  1.0000
  C   C40       1.0  0.4377082912764365  0.5607187282190225  0.7056134775675104  1.0000
  C   C41       1.0  0.5939906295747194  0.32931179100270214  0.2275250657384404  1.0000
  C   C42       1.0  0.4060134891673783  0.6706910121076106  0.7724770353193335  1.0000
  C   C43       1.0  0.5472435318186939  0.18693402401333256  0.2291063947809917  1.0000
  C   C44       1.0  0.4527613375274697  0.8130677051809342  0.7708942557565451  1.0000
  C   C45       1.0  0.47177347353031257  0.15602051228899683  0.29718517158212887  1.0000
  C   C46       1.0  0.528232528330186  0.8439812267157835  0.7028155629107928  1.0000
  C   C47       1.0  0.7264153537433558  0.4968988063840741  0.158842478722427  1.0000
  C   C48       1.0  0.27358652624830887  0.503107237997945  0.8411581623090926  1.0000
  N   N1        1.0  0.8609946896471216  0.5694293478331929  0.7399828929804784  1.0000
  N   N2        1.0  0.13900223017436997  0.4305690583025595  0.26001652478920084  1.0000
  N   N3        1.0  0.9255610238927618  0.5715900311460587  0.8828123316195403  1.0000
  N   N4        1.0  0.0744381595060943  0.4284083924414475  0.11718789979278912  1.0000
  N   N5        1.0  0.34677377837225276  0.13197990203303078  0.4723874719030975  1.0000
  N   N6        1.0  0.6532291873825002  0.8680196390511553  0.5276132543872407  1.0000
  N   N7        1.0  0.2474661430847291  0.30750284694248364  0.46239727195290214  1.0000
  N   N8        1.0  0.7525387248101226  0.6924988800824962  0.537604024316515  1.0000
  O   O1        1.0  0.6266557719712081  0.18750638139381687  0.6557497373952828  1.0000
  O   O2        1.0  0.3733460699770533  0.8124931628955636  0.34424703054838096  1.0000
  O   O3        1.0  0.6952722254709797  0.33824157558524337  0.576483145770446  1.0000
  O   O4        1.0  0.3047292477834774  0.6617601263467493  0.4235166071690628  1.0000
  O   O5        1.0  0.6921244402503818  0.1891839449648245  0.818242655794144  1.0000
  O   O6        1.0  0.3078860404075883  0.8108080918202062  0.18175002196100112  1.0000
  O   O7        1.0  0.8435994617078963  0.347609208308043  0.9562569838269539  1.0000
  O   O8        1.0  0.1564004532733279  0.6523848913170909  0.0437398605212138  1.0000
  O   O9        1.0  0.21271015699034732  0.2627316084896236  0.947194403124726  1.0000
  O   O10       1.0  0.787287893894174  0.7372668052873621  0.052805744332218324  1.0000
  O   O11       1.0  0.2784822757218068  0.951598396212866  0.5784746711597252  1.0000
  O   O12       1.0  0.7215169105796663  0.04840003171320719  0.42152426878884347  1.0000
  O   O13       1.0  0.11395242565471622  0.06304556093729731  0.6409449467048774  1.0000
  O   O14       1.0  0.8860463977581929  0.9369550333085285  0.35905439531200767  1.0000
  O   O15       1.0  0.015806960776885117  0.26501323221582856  0.6334178166106598  1.0000
  O   O16       1.0  0.9841960283534876  0.7349895654225307  0.36658290902795443  1.0000
  O   O17       1.0  0.041562809198801225  0.41859645506148985  0.5526367168556092  1.0000
  O   O18       1.0  0.9584401828341882  0.5814063469154432  0.4473627173192511  1.0000
  O   O19       1.0  0.6692672805355856  0.3509480110701445  0.15892078174872637  1.0000
  O   O20       1.0  0.3307353252332136  0.6490537006723686  0.8410790551461602  1.0000
  O   O21       1.0  0.11730555927178443  0.767310599975893  0.6592019532368454  1.0000
  O   O22       1.0  0.8827011844849296  0.23269005209713356  0.3408012051271427  1.0000
