data_image0
_chemical_formula_structural       Cd2H32C34N6Cl2O6
_chemical_formula_sum              "Cd2 H32 C34 N6 Cl2 O6"
_cell_length_a       9.9230328012373
_cell_length_b       10.666569162957753
_cell_length_c       11.249820598107046
_cell_angle_alpha    64.55540626638165
_cell_angle_beta     84.35243971950112
_cell_angle_gamma    73.4862962810748

_space_group_name_H-M_alt    "P 1"
_space_group_IT_number       1

loop_
  _space_group_symop_operation_xyz
  'x, y, z'

loop_
  _atom_site_type_symbol
  _atom_site_label
  _atom_site_symmetry_multiplicity
  _atom_site_fract_x
  _atom_site_fract_y
  _atom_site_fract_z
  _atom_site_occupancy
  Cd  Cd1       1.0  0.9808693234757228  0.3262471421412627  0.11436300315474307  1.0000
  Cd  Cd2       1.0  0.019135969820972324  0.6737411285014403  0.88564591520025  1.0000
  H   H1        1.0  0.7142505381963175  0.6368213489491765  0.039121089025947235  1.0000
  H   H2        1.0  0.2857561451330213  0.3631725007064475  0.9608783655789919  1.0000
  H   H3        1.0  0.7641135349058105  0.10984200139179727  0.20785578721879713  1.0000
  H   H4        1.0  0.23587374476121442  0.8901520835441443  0.7921421575811819  1.0000
  H   H5        1.0  0.5588587977051488  0.010660151593953102  0.31107726617278075  1.0000
  H   H6        1.0  0.44112742094481666  0.989343309063002  0.6889277816365293  1.0000
  H   H7        1.0  0.33158693137991696  0.17231978392705824  0.33139425085584406  1.0000
  H   H8        1.0  0.6684018956675433  0.8276890906078974  0.6686066006749697  1.0000
  H   H9        1.0  0.29887634984379474  0.43237678316619094  0.25576331229652277  1.0000
  H   H10       1.0  0.701118925255244  0.5676334114818076  0.7442265242204869  1.0000
  H   H11       1.0  0.25370871216353663  0.6344765571973381  0.10150400314758203  1.0000
  H   H12       1.0  0.746294204615765  0.3655263429146913  0.8984780752139229  1.0000
  H   H13       1.0  0.09211500934432594  0.861775044725313  0.09290571878970866  1.0000
  H   H14       1.0  0.9078939347434201  0.13822621587135592  0.9070941292830168  1.0000
  H   H15       1.0  0.4419936298935737  0.0054723683918851025  0.13022026460328817  1.0000
  H   H16       1.0  0.5580142058565445  0.9945146262182475  0.869795101600708  1.0000
  H   H17       1.0  0.6071227638920006  0.7741366958163667  0.1456329307585165  1.0000
  H   H18       1.0  0.3928845394596721  0.22585494570108008  0.8543691029841369  1.0000
  H   H19       1.0  0.8491617899735007  0.3988817015522698  0.3611237029082161  1.0000
  H   H20       1.0  0.15084261397392143  0.6011216889592818  0.638877587234475  1.0000
  H   H21       1.0  0.6684238818076479  0.2990875566128964  0.6341209054252842  1.0000
  H   H22       1.0  0.3315670110225284  0.7009204112709709  0.3658738484075528  1.0000
  H   H23       1.0  0.5561400938985911  0.32612140039135795  0.5053824396684304  1.0000
  H   H24       1.0  0.4438559750423252  0.6738855875869446  0.49460768111315906  1.0000
  H   H25       1.0  0.669475802224433  0.4401861482446632  0.47352672985502403  1.0000
  H   H26       1.0  0.3305176149593336  0.5598239281385133  0.5264678055973206  1.0000
  H   H27       1.0  0.757601425346152  0.04273987148881279  0.6522935615959466  1.0000
  H   H28       1.0  0.2423964603021247  0.9572689943578322  0.3477045149910651  1.0000
  H   H29       1.0  0.8675505717547695  0.017216517458599902  0.5247913588651085  1.0000
  H   H30       1.0  0.13244629981610256  0.9827923552166098  0.4752068269133215  1.0000
  H   H31       1.0  0.6799148435956964  0.07047893831082772  0.5031039789801921  1.0000
  H   H32       1.0  0.32008261394961574  0.9295277526106034  0.4968958898254597  1.0000
  C   C1        1.0  0.671265957099095  0.5442966082520047  0.08971379812972195  1.0000
  C   C2        1.0  0.32873545155577233  0.45569743385279793  0.9102808257693339  1.0000
  C   C3        1.0  0.6441967861711717  0.3272255276634297  0.1733976853744679  1.0000
  C   C4        1.0  0.35580269647260815  0.6727684489453267  0.8265998452389381  1.0000
  C   C5        1.0  0.6631875529317384  0.17896314775273228  0.21804793777211984  1.0000
  C   C6        1.0  0.33680711360845816  0.8210340364556072  0.7819506414528944  1.0000
  C   C7        1.0  0.5486752729233187  0.12559961064034297  0.2754576201450902  1.0000
  C   C8        1.0  0.45131479774882177  0.8744039810086972  0.7245416142355338  1.0000
  C   C9        1.0  0.4199757667979752  0.2169323630628668  0.28885854587391435  1.0000
  C   C10       1.0  0.5800163660768759  0.7830711885446462  0.7111413662343578  1.0000
  C   C11       1.0  0.40035145903233643  0.3646382429269863  0.24589625153967626  1.0000
  C   C12       1.0  0.599644628008413  0.6353653605194438  0.7541005354714085  1.0000
  C   C13       1.0  0.514428303454025  0.41891420491236186  0.18651503370004005  1.0000
  C   C14       1.0  0.48556985510118267  0.5810808825940512  0.8134813165359273  1.0000
  C   C15       1.0  0.4409648932464662  0.6882450401205205  0.12632612967788498  1.0000
  C   C16       1.0  0.5590356998866923  0.31175645979542566  0.8736683191527275  1.0000
  C   C17       1.0  0.29602715722919737  0.7129099882634192  0.11171142903867087  1.0000
  C   C18       1.0  0.7039743818855514  0.2870915575927383  0.8882811183795238  1.0000
  C   C19       1.0  0.20469711922724795  0.8414956296389845  0.10589243358912627  1.0000
  C   C20       1.0  0.7953106064956471  0.1585057960926051  0.8941021470120273  1.0000
  C   C21       1.0  0.2568092120493334  0.9475250864319451  0.11227581994830853  1.0000
  C   C22       1.0  0.7432000477813289  0.052467460806717305  0.8877309786161334  1.0000
  C   C23       1.0  0.4023071389112972  0.9224283519780626  0.1254197174090805  1.0000
  C   C24       1.0  0.5977010727940594  0.07756422847355537  0.8745862942362874  1.0000
  C   C25       1.0  0.49439619881243163  0.7932011675299293  0.13373333586059744  1.0000
  C   C26       1.0  0.5056128907786928  0.20679151163069057  0.8662689821513464  1.0000
  C   C27       1.0  0.1586216639321805  0.08444343500364228  0.10904032502207167  1.0000
  C   C28       1.0  0.8413870620717886  0.9155478830725413  0.8909723528551435  1.0000
  C   C29       1.0  0.8616233404682845  0.2817887945261218  0.3973906694624532  1.0000
  C   C30       1.0  0.13837621332764638  0.71821782996939  0.6026107731813466  1.0000
  C   C31       1.0  0.660053278008526  0.32971296008209794  0.5281108969600722  1.0000
  C   C32       1.0  0.33994289307611325  0.6702939487430228  0.4718819121530158  1.0000
  C   C33       1.0  0.7688339230881384  0.0816045870075754  0.5455159614940753  1.0000
  C   C34       1.0  0.2311647006742774  0.918405349695199  0.4544816124431532  1.0000
  N   N1        1.0  0.7386215929253765  0.4093448342449761  0.11302973218126057  1.0000
  N   N2        1.0  0.2613819641278496  0.5906457305176429  0.8869740278959453  1.0000
  N   N3        1.0  0.535511249306154  0.557413195189696  0.13240875634115667  1.0000
  N   N4        1.0  0.464487473543663  0.4425839617043721  0.8675893861181618  1.0000
  N   N5        1.0  0.7699707555413865  0.23231996607871244  0.4892986146480141  1.0000
  N   N6        1.0  0.23002761393760096  0.7676867971673218  0.5106984566347137  1.0000
  Cl  Cl1       1.0  0.022127927698697633  0.5345811634225299  0.15014094024926547  1.0000
  Cl  Cl2       1.0  0.977870673479316  0.46541358108679964  0.8498670594231826  1.0000
  O   O1        1.0  0.026619696850659107  0.09747077122733569  0.1137256665601001  1.0000
  O   O2        1.0  0.9733871009904791  0.9025272240321626  0.8862774816829598  1.0000
  O   O3        1.0  0.21090967899917248  0.18303435047308617  0.10523784664346181  1.0000
  O   O4        1.0  0.7890991672483524  0.8169535039180501  0.894784185794741  1.0000
  O   O5        1.0  0.953536709606233  0.20622957357641514  0.3530669467996573  1.0000
  O   O6        1.0  0.046460387931922864  0.7937748896510113  0.646936506445634  1.0000
