data_image0
_chemical_formula_structural       Ba4P4H28C8O32
_chemical_formula_sum              "Ba4 P4 H28 C8 O32"
_cell_length_a       6.323517154240818
_cell_length_b       10.686369287868018
_cell_length_c       11.77246274500692
_cell_angle_alpha    89.99989898247519
_cell_angle_beta     90.00009394843019
_cell_angle_gamma    91.39091560821309

_space_group_name_H-M_alt    "P 1"
_space_group_IT_number       1

loop_
  _space_group_symop_operation_xyz
  'x, y, z'

loop_
  _atom_site_type_symbol
  _atom_site_label
  _atom_site_symmetry_multiplicity
  _atom_site_fract_x
  _atom_site_fract_y
  _atom_site_fract_z
  _atom_site_occupancy
  Ba  Ba1       1.0  0.9418728212977001  0.8049814359406536  0.42416001110616725  1.0000
  Ba  Ba2       1.0  0.5581253947985517  0.6950243274252939  0.9241623356496264  1.0000
  Ba  Ba3       1.0  0.0581312681358952  0.1950195029761588  0.5758394496706957  1.0000
  Ba  Ba4       1.0  0.4418694405562888  0.30498223004596525  0.07583542623799391  1.0000
  P   P1        1.0  0.1165109847030763  0.47519840186269835  0.32065390202678407  1.0000
  P   P2        1.0  0.38347621168466617  0.02480568790470269  0.82065259342928  1.0000
  P   P3        1.0  0.8834836945082644  0.5248044114172074  0.6793464081836406  1.0000
  P   P4        1.0  0.6165214351015891  0.9751924443880354  0.17934177070695512  1.0000
  H   H1        1.0  0.7399343052850041  0.4838341405593595  0.3671058385403471  1.0000
  H   H2        1.0  0.760061267786142  0.016165633046334393  0.867108664338119  1.0000
  H   H3        1.0  0.2600572502006031  0.5161696095218886  0.6328970199875102  1.0000
  H   H4        1.0  0.23994084988867564  0.9838259457833444  0.13288315148598437  1.0000
  H   H5        1.0  0.763629344844837  0.28102531446739937  0.310796643775305  1.0000
  H   H6        1.0  0.7363692132559764  0.21897362694036804  0.8108008112779715  1.0000
  H   H7        1.0  0.23636845810061397  0.7189765620048545  0.6892079136371692  1.0000
  H   H8        1.0  0.2636331776921921  0.7810245042074158  0.18920459557987365  1.0000
  H   H9        1.0  0.2249976844006198  0.2767537165655582  0.3375019123427947  1.0000
  H   H10       1.0  0.2750054063583036  0.2232512741626778  0.83750611257922  1.0000
  H   H11       1.0  0.7750113833970573  0.723252837503189  0.6624941506722735  1.0000
  H   H12       1.0  0.7250016896962848  0.7767459198071123  0.16249504708213183  1.0000
  H   H13       1.0  0.3766985180068261  0.8033127220130394  0.5428400718280315  1.0000
  H   H14       1.0  0.1232948893764387  0.6966895540481131  0.042837597219296704  1.0000
  H   H15       1.0  0.623295966024358  0.19668541102826964  0.45716278670593624  1.0000
  H   H16       1.0  0.8767027964538057  0.30330951428634717  0.9571627129957466  1.0000
  H   H17       1.0  0.4123892666993569  0.6632065817336963  0.4213736920614935  1.0000
  H   H18       1.0  0.08760823585420499  0.836794990359145  0.921371567097083  1.0000
  H   H19       1.0  0.5876116599739305  0.3367943579356307  0.5786300159134186  1.0000
  H   H20       1.0  0.912386209141367  0.16320220663413207  0.07863214087756633  1.0000
  H   H21       1.0  0.2722465639994311  0.9015084267555123  0.6334131695785035  1.0000
  H   H22       1.0  0.2277455241367434  0.5984946174717152  0.13341011412709491  1.0000
  H   H23       1.0  0.7277496185245056  0.09849251404930469  0.3665896889540363  1.0000
  H   H24       1.0  0.7722555196444318  0.40150913034093333  0.8665918949657083  1.0000
  H   H25       1.0  0.44769015500956044  0.7887449119784334  0.3606369529202951  1.0000
  H   H26       1.0  0.05230565559026699  0.7112577093727024  0.8606341481970716  1.0000
  H   H27       1.0  0.5523108107014281  0.21125696373735542  0.6393676044938063  1.0000
  H   H28       1.0  0.947693611625887  0.2887413585811557  0.13936871033858722  1.0000
  C   C1        1.0  0.7694487280991283  0.5644376209876112  0.20029362240963178  1.0000
  C   C2        1.0  0.7305538758786199  0.9355732373789251  0.7002778913896963  1.0000
  C   C3        1.0  0.23054436973363576  0.43556519266737564  0.7997100855597169  1.0000
  C   C4        1.0  0.2694773312495827  0.0644333114158826  0.29969523675849535  1.0000
  C   C5        1.0  0.8270763281594213  0.46489192392743195  0.2878506045663585  1.0000
  C   C6        1.0  0.6729126851222773  0.035107062378529  0.7878533096228608  1.0000
  C   C7        1.0  0.17291194744961302  0.53510901876934  0.7121514045221746  1.0000
  C   C8        1.0  0.3270897058122983  0.964891068779515  0.21214105451581133  1.0000
  O   O1        1.0  0.8094511709680817  0.6778022621493847  0.23085045279064792  1.0000
  O   O2        1.0  0.690553929366338  0.8221907537816832  0.7308510060147243  1.0000
  O   O3        1.0  0.19053390283771418  0.32219774525739087  0.7691507068570689  1.0000
  O   O4        1.0  0.30947036670809785  0.1778017557968424  0.269144207579771  1.0000
  O   O5        1.0  0.6911118749717956  0.532229888953907  0.10602191500628073  1.0000
  O   O6        1.0  0.8088710908275941  0.9677708525413207  0.6060291466078171  1.0000
  O   O7        1.0  0.30888264808872634  0.46776918014017344  0.8939749974473872  1.0000
  O   O8        1.0  0.19114391213665982  0.032226339540457595  0.3939686152978653  1.0000
  O   O9        1.0  0.772816107550426  0.34368093409327827  0.2447127183973237  1.0000
  O   O10       1.0  0.7271824048793719  0.15632093822429027  0.7447144309406539  1.0000
  O   O11       1.0  0.2271785326336726  0.656320943132286  0.7552952367732645  1.0000
  O   O12       1.0  0.2728249644307894  0.8436828080770057  0.255285879275533  1.0000
  O   O13       1.0  0.22900577381993514  0.4708133226566531  0.20592690686600434  1.0000
  O   O14       1.0  0.2709871922496347  0.029184426396099604  0.7059280236614643  1.0000
  O   O15       1.0  0.7709936495449481  0.5291894894846152  0.794077650546541  1.0000
  O   O16       1.0  0.729005554245866  0.9708099628391977  0.2940697382350663  1.0000
  O   O17       1.0  0.1635818710773691  0.3498088543137427  0.3878149976551982  1.0000
  O   O18       1.0  0.3364148619321554  0.1501923002727281  0.8878168326385281  1.0000
  O   O19       1.0  0.8364158537884948  0.65019115006875  0.6121844631191565  1.0000
  O   O20       1.0  0.6635890713495698  0.8498048944590406  0.11217838094164281  1.0000
  O   O21       1.0  0.16346887714913552  0.5864112148301642  0.3971229662890394  1.0000
  O   O22       1.0  0.3365254809884206  0.9135922751568089  0.8971294658032534  1.0000
  O   O23       1.0  0.8365399954778001  0.4135906589928806  0.6028832900090038  1.0000
  O   O24       1.0  0.6634738643010535  0.0864086648915432  0.10287339273091331  1.0000
  O   O25       1.0  0.25370626340953345  0.8181242973754832  0.5937189002489023  1.0000
  O   O26       1.0  0.24628726929764613  0.6818778841674272  0.09371572704494469  1.0000
  O   O27       1.0  0.7462928867018731  0.1818719624326945  0.4062882054886857  1.0000
  O   O28       1.0  0.7537089912975077  0.3181249287334608  0.9062854326062251  1.0000
  O   O29       1.0  0.503909760344456  0.7403026454773709  0.4258799547463994  1.0000
  O   O30       1.0  0.9960851410713758  0.7596993712645027  0.9258783765516513  1.0000
  O   O31       1.0  0.4960911663288314  0.2596982941919634  0.5741237532285198  1.0000
  O   O32       1.0  0.003910924341532499  0.2402987613993659  0.07412363254319132  1.0000
