data_image0
_chemical_formula_structural       Zn2H24C46Br2N6O8
_chemical_formula_sum              "Zn2 H24 C46 Br2 N6 O8"
_cell_length_a       11.541939043092048
_cell_length_b       15.845728448001145
_cell_length_c       17.939856804100796
_cell_angle_alpha    89.99996066200966
_cell_angle_beta     92.93575043296664
_cell_angle_gamma    90.00002096796494

_space_group_name_H-M_alt    "P 1"
_space_group_IT_number       1

loop_
  _space_group_symop_operation_xyz
  'x, y, z'

loop_
  _atom_site_type_symbol
  _atom_site_label
  _atom_site_symmetry_multiplicity
  _atom_site_fract_x
  _atom_site_fract_y
  _atom_site_fract_z
  _atom_site_occupancy
  Zn  Zn1       1.0  0.9927780533391511  0.9999998704346212  0.9232309978243265  1.0000
  Zn  Zn2       1.0  0.0072237808554263  6.89814215e-08  0.0767691317627097  1.0000
  H   H1        1.0  0.742606995527794  0.7987929475327534  0.8800950412344476  1.0000
  H   H2        1.0  0.7658288277864996  0.7981116755036624  0.1193114770318573  1.0000
  H   H3        1.0  0.6444863718800136  0.6673710617301438  0.1203772713846689  1.0000
  H   H4        1.0  0.6215513766674832  0.6678749993024835  0.8802303175008745  1.0000
  H   H5        1.0  0.25739387952857834  0.7987919169987163  0.1199051772014883  1.0000
  H   H6        1.0  0.2341703100078263  0.7981106767218831  0.8806892395884347  1.0000
  H   H7        1.0  0.3555127119999922  0.6673694650566163  0.8796218502569033  1.0000
  H   H8        1.0  0.37844944065827946  0.6678727389893951  0.1197694207715259  1.0000
  H   H9        1.0  0.2573937435089703  0.20120815610847126  0.1199053533739445  1.0000
  H   H10       1.0  0.2341701742983489  0.201889428137136  0.880689415359214  1.0000
  H   H11       1.0  0.3555126358080897  0.33263067299620985  0.8796219489405672  1.0000
  H   H12       1.0  0.3784493642371202  0.3321267354238557  0.11976951975211847  1.0000
  H   H13       1.0  0.7426068595077524  0.201207293387796  0.8800952174074652  1.0000
  H   H14       1.0  0.7658286920765889  0.20188853366420997  0.1193116528031908  1.0000
  H   H15       1.0  0.644486293819689  0.3326291142450017  0.12037792742447809  1.0000
  H   H16       1.0  0.6215513021131757  0.33212520922774746  0.8802298591273683  1.0000
  H   H17       1.0  0.17094403778514078  3.3699466679999995e-07  0.8128992594767652  1.0000
  H   H18       1.0  0.8128659320189013  4.288077732999999e-07  0.7969587411557768  1.0000
  H   H19       1.0  0.1831984899825656  0.9999998602538511  0.6724102243251053  1.0000
  H   H20       1.0  0.8086078196255426  4.832799049999999e-07  0.6557659395418582  1.0000
  H   H21       1.0  0.8290538728768696  3.7617034800000036e-08  0.1871007832257874  1.0000
  H   H22       1.0  0.1871319861139327  0.9999999458047953  0.2030390721259181  1.0000
  H   H23       1.0  0.8168022490539072  0.9999999812175704  0.3275901702836634  1.0000
  H   H24       1.0  0.1913929268818961  0.999999989277285  0.344232225645861  1.0000
  C   C1        1.0  0.761865369764564  0.8058724139340046  0.9996582628926518  1.0000
  C   C2        1.0  0.8421456161666966  0.8802451495618514  0.9991626053841641  1.0000
  C   C3        1.0  0.5611053438277055  0.577627668745933  0.0004235370303078037  1.0000
  C   C4        1.0  0.6261684054750062  0.658740388951223  0.0003307253544803935  1.0000
  C   C5        1.0  0.7197672858749586  0.7696664625842755  0.9323660423010764  1.0000
  C   C6        1.0  0.7328331370354703  0.7693228602726165  0.06730740464797688  1.0000
  C   C7        1.0  0.6653989063260823  0.6964874492484725  0.067630956711497  1.0000
  C   C8        1.0  0.6524327104396261  0.696805808162928  0.9327264611061921  1.0000
  C   C9        1.0  0.23813550851477316  0.8058721025652745  0.00034195136890959775  1.0000
  C   C10       1.0  0.1578535608848384  0.8802429231413315  0.0008375054540649996  1.0000
  C   C11       1.0  0.43889456487290346  0.577627262958501  0.9995762246665336  1.0000
  C   C12       1.0  0.37383067447616  0.6587393346545697  0.9996684013757144  1.0000
  C   C13       1.0  0.28023270838001213  0.7696654788940833  0.0676341635220155  1.0000
  C   C14       1.0  0.2671659913888149  0.7693224608314253  0.9326922142360488  1.0000
  C   C15       1.0  0.3346001870734908  0.6964870680437657  0.9323692624726619  1.0000
  C   C16       1.0  0.3475663849724525  0.6968048427117138  0.0672732005352117  1.0000
  C   C17       1.0  0.23813623681416368  0.19412805862242516  0.000342161502203498  1.0000
  C   C18       1.0  0.1578551228699254  0.1197553229944646  0.0008377892244126997  1.0000
  C   C19       1.0  0.43889452953450814  0.42237280381049647  0.9995762704367834  1.0000
  C   C20       1.0  0.3738314697550607  0.3412607146903355  0.9996685247572116  1.0000
  C   C21       1.0  0.28023345316166365  0.23033400997204004  0.0676343523075005  1.0000
  C   C22       1.0  0.2671658687846374  0.23067761228370642  0.9326923730328431  1.0000
  C   C23       1.0  0.3346000994941747  0.30351365439275907  0.9323688209691382  1.0000
  C   C24       1.0  0.3475671629227364  0.30319529547840324  0.0672733463607145  1.0000
  C   C25       1.0  0.7618652305215575  0.19412710782124523  0.999658443240044  1.0000
  C   C26       1.0  0.842146316212215  0.1197550250759249  0.9991611873033435  1.0000
  C   C27       1.0  0.561104440947062  0.42237257851292737  0.0004235530144782971  1.0000
  C   C28       1.0  0.6261683332113747  0.34125987573217026  0.00033081895026040533  1.0000
  C   C29       1.0  0.7197671631142127  0.23033373149232966  0.9323662013006667  1.0000
  C   C30       1.0  0.7328330144310156  0.23067674955509432  0.0673075634451479  1.0000
  C   C31       1.0  0.6653988168786283  0.30351214234253376  0.0676310725637492  1.0000
  C   C32       1.0  0.6524326189796738  0.3031943676745925  0.9327271345011994  1.0000
  C   C33       1.0  0.0936912172486544  0.999999808194076  0.7753398373047986  1.0000
  C   C34       1.0  0.8921491621629939  4.5127223559999997e-07  0.7664519771345795  1.0000
  C   C35       1.0  0.09984076886043877  3.7222455519999977e-07  0.6982020990586406  1.0000
  C   C36       1.0  0.9961282904564113  0.9999999758824529  0.6538739075422555  1.0000
  C   C37       1.0  0.8902293859733205  4.812316518999999e-07  0.6889410070883101  1.0000
  C   C38       1.0  0.9982400311125941  8.14794989999997e-09  0.5718262799491285  1.0000
  C   C39       1.0  0.9063077885713184  3.327735239999998e-08  0.2246599403762133  1.0000
  C   C40       1.0  0.10785049105404447  0.9999999233405462  0.2335458957196508  1.0000
  C   C41       1.0  0.9001588787534869  2.3875798999999997e-09  0.3017974458612399  1.0000
  C   C42       1.0  0.003871810521658898  0.9999999635335967  0.3461256051170238  1.0000
  C   C43       1.0  0.10977136240182257  0.9999999913257581  0.3110566007441875  1.0000
  C   C44       1.0  0.0017626668886804996  0.9999999312677587  0.4281749941346149  1.0000
  C   C45       1.0  0.619690386664395  0.4999998157139984  0.0008987771201348031  1.0000
  C   C46       1.0  0.380310344901261  0.5000000257565489  0.9991038469094987  1.0000
  Br  Br1       1.0  0.7853096974317282  0.4999998374360999  0.0018298215185979028  1.0000
  Br  Br2       1.0  0.21468928224037143  0.5000000040322803  0.9981777591354374  1.0000
  N   N1        1.0  0.9918720503487819  4.481721589e-07  0.8085172956652329  1.0000
  N   N2        1.0  0.10295356916799389  4.3387070999999983e-07  0.5411273107745274  1.0000
  N   N3        1.0  0.8952866271095485  9.875712699999942e-09  0.5321762690459053  1.0000
  N   N4        1.0  0.0081267278553341  0.9999999264396494  0.19148277682359086  1.0000
  N   N5        1.0  0.897048908688241  3.8686252399999955e-08  0.4588720286961632  1.0000
  N   N6        1.0  0.10471607462712738  0.9999999295404364  0.4678238903274021  1.0000
  O   O1        1.0  0.8688458023329273  0.9083164654467454  0.9356572553753538  1.0000
  O   O2        1.0  0.8800723581362816  0.9086184659876365  0.06228175879310528  1.0000
  O   O3        1.0  0.13115512258219297  0.908316075648848  0.0643428984835808  1.0000
  O   O4        1.0  0.11992856878401169  0.9086180233603115  0.9377178375325598  1.0000
  O   O5        1.0  0.13115493670368747  0.09168400710957059  0.0643431392332232  1.0000
  O   O6        1.0  0.11992838463574879  0.0913820065691127  0.9377175211050427  1.0000
  O   O7        1.0  0.8688456183219841  0.09168376582278627  0.9356569387699735  1.0000
  O   O8        1.0  0.8800721739878695  0.09138181811154311  0.062281442365772904  1.0000
