data_image0
_chemical_formula_structural       Sn2H30Au2C40N4
_chemical_formula_sum              "Sn2 H30 Au2 C40 N4"
_cell_length_a       7.246658823517403
_cell_length_b       11.884654098817574
_cell_length_c       11.884581664731853
_cell_angle_alpha    105.32338483925565
_cell_angle_beta     103.19627286869026
_cell_angle_gamma    103.19634738150745

_space_group_name_H-M_alt    "P 1"
_space_group_IT_number       1

loop_
  _space_group_symop_operation_xyz
  'x, y, z'

loop_
  _atom_site_type_symbol
  _atom_site_label
  _atom_site_symmetry_multiplicity
  _atom_site_fract_x
  _atom_site_fract_y
  _atom_site_fract_z
  _atom_site_occupancy
  Sn  Sn1       1.0  0.7499938678084136  0.6904124106575652  0.3095874168881778  1.0000
  Sn  Sn2       1.0  0.24999549332719084  0.3095884032321052  0.6904103216407761  1.0000
  H   H1        1.0  0.07566752241676516  0.5821624645978788  0.41705509418445524  1.0000
  H   H2        1.0  0.42432878236584765  0.5829444123398843  0.41784429980290116  1.0000
  H   H3        1.0  0.9243326412786815  0.41784289567053184  0.5829470681906981  1.0000
  H   H4        1.0  0.5756689661971991  0.41705087316890405  0.5821583168975265  1.0000
  H   H5        1.0  0.14617869112671394  0.3827265332157238  0.36917703503692667  1.0000
  H   H6        1.0  0.35383021148520305  0.6308267833354223  0.6172835968176428  1.0000
  H   H7        1.0  0.8538280664319801  0.617280626808416  0.6308265527813858  1.0000
  H   H8        1.0  0.6461755439196112  0.3691702934890344  0.38272065075675943  1.0000
  H   H9        1.0  0.9280785690835602  0.20920124782402647  0.18447476873226518  1.0000
  H   H10       1.0  0.571933730587496  0.8155317804255732  0.7908070688735405  1.0000
  H   H11       1.0  0.07193476730089553  0.7908049598564093  0.8155303853609438  1.0000
  H   H12       1.0  0.42807301204299375  0.18446711007110395  0.20919525947842027  1.0000
  H   H13       1.0  0.6353555515845741  0.23379235294726197  0.04458461617583247  1.0000
  H   H14       1.0  0.8646539000357197  0.9554181325718006  0.7662072968928726  1.0000
  H   H15       1.0  0.3646563719306641  0.7662083457452055  0.9554189321884717  1.0000
  H   H16       1.0  0.13534916518674583  0.0445816603155365  0.23378967114192045  1.0000
  H   H17       1.0  0.5583579405498187  0.4293024385598728  0.09474204818145893  1.0000
  H   H18       1.0  0.9416347306938351  0.905255972802415  0.5706903524132513  1.0000
  H   H19       1.0  0.44164363628806313  0.5706946371264366  0.9052582191773764  1.0000
  H   H20       1.0  0.05835517693176231  0.09474296605830551  0.4293027829227043  1.0000
  H   H21       1.0  0.9008920017741034  0.7090278058638191  0.08239551321315726  1.0000
  H   H22       1.0  0.5991060603267473  0.9176006716191623  0.29097164783006946  1.0000
  H   H23       1.0  0.0991034672126432  0.29097113892417065  0.9176034897307371  1.0000
  H   H24       1.0  0.40089038079352696  0.0824000934556253  0.7090262768721656  1.0000
  H   H25       1.0  0.8961577554257121  0.8381045908371122  0.9505743848999015  1.0000
  H   H26       1.0  0.6038474151636779  0.049425975378440505  0.16189956868027616  1.0000
  H   H27       1.0  0.10384242347115703  0.1618952453886777  0.0494255361963809  1.0000
  H   H28       1.0  0.39615373586673297  0.9505756811341541  0.8380992741743538  1.0000
  H   H29       1.0  0.7500025309922052  0.010100392010720298  0.9899021752429318  1.0000
  H   H30       1.0  0.24999956204208476  0.9899003393038301  0.01009657118255801  1.0000
  Au  Au1       1.0  0.4999964936957327  5.153884714991418e-07  0.500003593784136  1.0000
  Au  Au2       1.0  0.9999976555015526  0.5000003806137273  0.9999986876180313  1.0000
  C   C1        1.0  0.24223860473299655  0.8704605102346364  0.44074957704742695  1.0000
  C   C2        1.0  0.2577617024830233  0.5592546505821262  0.12954705592041896  1.0000
  C   C3        1.0  0.7577661934118538  0.12954577454449634  0.559257708384024  1.0000
  C   C4        1.0  0.7422389322963243  0.4407461090162387  0.870454008016601  1.0000
  C   C5        1.0  0.8125320956390072  0.5198479450971478  0.2591920898825961  1.0000
  C   C6        1.0  0.6874622856709252  0.740806621589968  0.480149448182324  1.0000
  C   C7        1.0  0.18747043824025417  0.4801509574905438  0.7408079402153617  1.0000
  C   C8        1.0  0.3125303725055986  0.25918957474954146  0.5198476027701203  1.0000
  C   C9        1.0  0.9778700230164575  0.5056745322349486  0.3358557457692442  1.0000
  C   C10       1.0  0.5221285644328122  0.6641450311179541  0.49432888200360026  1.0000
  C   C11       1.0  0.022133452757408693  0.49432896258272774  0.6641455881976623  1.0000
  C   C12       1.0  0.4778682723106372  0.3358511663597099  0.505672149164404  1.0000
  C   C13       1.0  0.018717051560230402  0.39399265344346185  0.30889881636132793  1.0000
  C   C14       1.0  0.48128843223189227  0.6911048618974007  0.6060140170042985  1.0000
  C   C15       1.0  0.9812892501706403  0.606010824494092  0.6911029284672096  1.0000
  C   C16       1.0  0.5187149983748185  0.3088931353359925  0.3939884396068648  1.0000
  C   C17       1.0  0.895696328308304  0.2961384756705456  0.20423775015432696  1.0000
  C   C18       1.0  0.6043109285837219  0.7957654606232651  0.7038652473606389  1.0000
  C   C19       1.0  0.10431278428742985  0.7038649920014706  0.795765246516609  1.0000
  C   C20       1.0  0.39569253220728473  0.20423252338095915  0.29613552728896037  1.0000
  C   C21       1.0  0.7315574888987656  0.30951823636758047  0.12692272784100564  1.0000
  C   C22       1.0  0.7684475309532388  0.8730804672339193  0.690481121134347  1.0000
  C   C23       1.0  0.26845349266723434  0.6904806288089206  0.8730802168033945  1.0000
  C   C24       1.0  0.23155079417480104  0.12691844744477981  0.3095166107096077  1.0000
  C   C25       1.0  0.6889870892183156  0.4208574209724675  0.15482822017459338  1.0000
  C   C26       1.0  0.8110084405460757  0.8451694288107066  0.5791363950992832  1.0000
  C   C27       1.0  0.31101451780385514  0.579139641484666  0.8451703652226853  1.0000
  C   C28       1.0  0.18898616195215823  0.15482764938839466  0.4208577992207978  1.0000
  C   C29       1.0  0.749995189784606  0.8038650916081449  0.19613048205559358  1.0000
  C   C30       1.0  0.24999745324512193  0.19613387005995972  0.8038681100266769  1.0000
  C   C31       1.0  0.834101209287056  0.7831256321874422  0.10038202541971228  1.0000
  C   C32       1.0  0.6658956893435644  0.8996158516150743  0.21687283077492472  1.0000
  C   C33       1.0  0.16589424460754296  0.21687331921513217  0.8996178185049571  1.0000
  C   C34       1.0  0.3341012077138289  0.10038307811827003  0.7831255366189963  1.0000
  C   C35       1.0  0.8330489486989665  0.8565646372358418  0.02592540507914261  1.0000
  C   C36       1.0  0.6669528876947268  0.9740738406148565  0.14343661163633925  1.0000
  C   C37       1.0  0.16695123019790972  0.1434351989899483  0.9740745160171469  1.0000
  C   C38       1.0  0.33304730629429  0.0259259889963488  0.8565624684791614  1.0000
  C   C39       1.0  0.7500001637200883  0.9523540848096774  0.04764988403714908  1.0000
  C   C40       1.0  0.24999907317290146  0.04764667661416411  0.9523501334882738  1.0000
  N   N1        1.0  0.08562775088347507  0.7965273456610474  0.4053952073161326  1.0000
  N   N2        1.0  0.4143583437249348  0.5945997655026148  0.20347543148099592  1.0000
  N   N3        1.0  0.9143597262990113  0.20347255991070057  0.59460202392205  1.0000
  N   N4        1.0  0.5856328863809354  0.40539644589154034  0.7965222550214077  1.0000
