data_image0
_chemical_formula_structural       Cd2H28C32N12O10
_chemical_formula_sum              "Cd2 H28 C32 N12 O10"
_cell_length_a       8.02246563956225
_cell_length_b       10.504733109486708
_cell_length_c       10.504714876934617
_cell_angle_alpha    99.25225703495198
_cell_angle_beta     93.51737283993089
_cell_angle_gamma    93.51725749837539

_space_group_name_H-M_alt    "P 1"
_space_group_IT_number       1

loop_
  _space_group_symop_operation_xyz
  'x, y, z'

loop_
  _atom_site_type_symbol
  _atom_site_label
  _atom_site_symmetry_multiplicity
  _atom_site_fract_x
  _atom_site_fract_y
  _atom_site_fract_z
  _atom_site_occupancy
  Cd  Cd1       1.0  0.2499982210415865  0.12168409278732639  0.8783149251960793  1.0000
  Cd  Cd2       1.0  0.7500013008701245  0.8783150352974336  0.12168530143938479  1.0000
  H   H1        1.0  0.32135458937857203  0.907733216400331  0.014569066217560966  1.0000
  H   H2        1.0  0.17864560082664133  0.9854315755074696  0.09226739852945805  1.0000
  H   H3        1.0  0.6786450241734271  0.09226686853026682  0.9854332274410068  1.0000
  H   H4        1.0  0.8213540135819741  0.014568514507232101  0.9077339440463845  1.0000
  H   H5        1.0  0.6986915513483822  0.41051217038512555  0.8337804439855178  1.0000
  H   H6        1.0  0.8013064329599826  0.1662203604313106  0.5894843861725717  1.0000
  H   H7        1.0  0.30131037535196736  0.5894859913669566  0.166218783567146  1.0000
  H   H8        1.0  0.1986919328058576  0.833779731784759  0.41051689797448176  1.0000
  H   H9        1.0  0.6605050868685398  0.4954752382211256  0.9887986665509556  1.0000
  H   H10       1.0  0.839493489167495  0.0112014793881698  0.5045230418504119  1.0000
  H   H11       1.0  0.3394954978355215  0.5045219587182929  0.011200337715258992  1.0000
  H   H12       1.0  0.16050621859464093  0.9887995776405705  0.4954784655830834  1.0000
  H   H13       1.0  0.7847294041417925  0.5512145011954532  0.2146833578527776  1.0000
  H   H14       1.0  0.7152726856256565  0.7853220782141507  0.4487837400164167  1.0000
  H   H15       1.0  0.2152674312074794  0.44878268201168237  0.7853192754579651  1.0000
  H   H16       1.0  0.284725775206944  0.21467899118416517  0.5512158068228458  1.0000
  H   H17       1.0  0.9934355659555507  0.574959353807806  0.4056792823285491  1.0000
  H   H18       1.0  0.5065714893124209  0.5943219401612297  0.42504007384927434  1.0000
  H   H19       1.0  0.00656692172254481  0.4250446151125972  0.5943199832873205  1.0000
  H   H20       1.0  0.4934293763088178  0.40567816290440106  0.5749584739071878  1.0000
  H   H21       1.0  0.23217799744480766  0.43575236948946394  0.4065975524423848  1.0000
  H   H22       1.0  0.26783307826826785  0.5933976121770002  0.5642522083238006  1.0000
  H   H23       1.0  0.7678298625015428  0.564255484102084  0.5933978509056459  1.0000
  H   H24       1.0  0.7321688475754655  0.4066005444909779  0.4357479703115886  1.0000
  H   H25       1.0  0.28340974564689964  0.27607699148832415  0.21334671665921687  1.0000
  H   H26       1.0  0.2166003244373585  0.7866449438859252  0.7239279539614074  1.0000
  H   H27       1.0  0.7165965847394985  0.7239279581783934  0.7866490847697847  1.0000
  H   H28       1.0  0.7834002594100865  0.21335224796939664  0.27607200138754  1.0000
  C   C1        1.0  0.5335308236483413  0.3048685051443485  0.9395070410370394  1.0000
  C   C2        1.0  0.9664659147275005  0.0604936624109769  0.6951318727435449  1.0000
  C   C3        1.0  0.46646869997660895  0.6951306331086189  0.06049128343298091  1.0000
  C   C4        1.0  0.03353254353524455  0.9395073917350348  0.30487052734388703  1.0000
  C   C5        1.0  0.6842679824686116  0.40054294043056865  0.9347925449777391  1.0000
  C   C6        1.0  0.8157302333776926  0.0652080333786031  0.5994554423801475  1.0000
  C   C7        1.0  0.31573135444929784  0.5994542637943283  0.06520544977696827  1.0000
  C   C8        1.0  0.1842681315315318  0.9347920537533696  0.4005467928496315  1.0000
  C   C9        1.0  0.9197853205998001  0.3985528889087676  0.10899507124312892  1.0000
  C   C10       1.0  0.5802186685682998  0.8910034401394427  0.6014478274803707  1.0000
  C   C11       1.0  0.0802167936642135  0.6014472119554881  0.8910035349421223  1.0000
  C   C12       1.0  0.41978085420003447  0.10899569302942785  0.3985514480723679  1.0000
  C   C13       1.0  0.8904858990932425  0.4908615903393071  0.21584375674814987  1.0000
  C   C14       1.0  0.609515541774705  0.7841564694888279  0.5091382776275424  1.0000
  C   C15       1.0  0.1095113130965899  0.5091394812603838  0.7841557316623236  1.0000
  C   C16       1.0  0.3904828265609979  0.2158436379795532  0.49086015327134186  1.0000
  C   C17       1.0  0.0074596312308444195  0.5024270350474823  0.3209651647964904  1.0000
  C   C18       1.0  0.49254837494424925  0.6790350964060821  0.49757477240180487  1.0000
  C   C19       1.0  0.9925440108798822  0.49757595957340334  0.6790349454732407  1.0000
  C   C20       1.0  0.5074511495373244  0.32096404693098896  0.50242260098549  1.0000
  C   C21       1.0  0.1455302785957784  0.42439152648235295  0.32103090622498337  1.0000
  C   C22       1.0  0.3544780595940438  0.6789641770597968  0.5756106938449291  1.0000
  C   C23       1.0  0.8544734611515635  0.575612460573076  0.6789646134887872  1.0000
  C   C24       1.0  0.645522619320154  0.32103399197776383  0.4243875241962201  1.0000
  C   C25       1.0  0.17555342463754184  0.3343533652369857  0.2146092449898944  1.0000
  C   C26       1.0  0.3244553411711165  0.7853858652387307  0.6656497725776376  1.0000
  C   C27       1.0  0.8244501266895199  0.6656486776221727  0.7853878471740072  1.0000
  C   C28       1.0  0.6755453377430881  0.21461230379883037  0.3343484454635117  1.0000
  C   C29       1.0  0.060553691099286815  0.3234725050989199  0.10667929359097171  1.0000
  C   C30       1.0  0.4394488434376953  0.8933182743246706  0.6765310647257649  1.0000
  C   C31       1.0  0.9394449564403543  0.6765304983274734  0.8933205829635966  1.0000
  C   C32       1.0  0.5605505851204953  0.1066798867460577  0.32346899705204624  1.0000
  N   N1        1.0  0.840254368216172  0.3621037474833671  0.9881342563037093  1.0000
  N   N2        1.0  0.6597442695105684  0.0118667343068495  0.6378956351964931  1.0000
  N   N3        1.0  0.15974506034202565  0.6378944135873683  0.011865805474094802  1.0000
  N   N4        1.0  0.3402540037583748  0.9881323959792925  0.3621045330101822  1.0000
  N   N5        1.0  0.9237918107655715  0.2731067307290189  0.9162646220581222  1.0000
  N   N6        1.0  0.5762066230867475  0.08373568892540112  0.7268934632347097  1.0000
  N   N7        1.0  0.07620886643539392  0.7268914281403341  0.0837354981484779  1.0000
  N   N8        1.0  0.4237916484689563  0.9162634311925403  0.27310860713741647  1.0000
  N   N9        1.0  0.05573668386148971  0.24938839340307348  0.9857941434992908  1.0000
  N   N10       1.0  0.4442655790336189  0.014204676156140305  0.7506146485249161  1.0000
  N   N11       1.0  0.9442641791898934  0.7506116944102532  0.014207257505340484  1.0000
  N   N12       1.0  0.5557338486679484  0.9857934798304913  0.2493863643356207  1.0000
  O   O1        1.0  0.4016357890736302  0.3259949279528129  0.8745359669705263  1.0000
  O   O2        1.0  0.09836253708030537  0.12546668009979817  0.6740039270471527  1.0000
  O   O3        1.0  0.5983636394845604  0.6740032331179223  0.1254640948072847  1.0000
  O   O4        1.0  0.9016370773283099  0.8745334099148961  0.3259974155286897  1.0000
  O   O5        1.0  0.5443647320638404  0.21433814240669602  0.004705919674599102  1.0000
  O   O6        1.0  0.9556334816001096  0.9952975974647843  0.7856621102057559  1.0000
  O   O7        1.0  0.455636131844166  0.7856619504907272  0.9952945302473137  1.0000
  O   O8        1.0  0.04436488330911461  0.004702489667188602  0.2143401250240231  1.0000
  O   O9        1.0  0.2500002917151534  0.9818536042280926  0.018147930705502777  1.0000
  O   O10       1.0  0.7499993218368388  0.018146480702505102  0.9818543629530652  1.0000
