data_image0
_chemical_formula_structural       AlH12C21NO6
_chemical_formula_sum              "Al1 H12 C21 N1 O6"
_cell_length_a       4.131324856140415
_cell_length_b       13.473205344255215
_cell_length_c       13.473353332649738
_cell_angle_alpha    119.99919787846339
_cell_angle_beta     89.99996329165297
_cell_angle_gamma    89.99920799534627

_space_group_name_H-M_alt    "P 1"
_space_group_IT_number       1

loop_
  _space_group_symop_operation_xyz
  'x, y, z'

loop_
  _atom_site_type_symbol
  _atom_site_label
  _atom_site_symmetry_multiplicity
  _atom_site_fract_x
  _atom_site_fract_y
  _atom_site_fract_z
  _atom_site_occupancy
  Al  Al1       1.0  2.8445398570000022e-06  0.4999976752460212  0.49999915634396075  1.0000
  H   H1        1.0  0.1892083566479101  0.8180504630870759  0.7874496019775706  1.0000
  H   H2        1.0  0.20183200587877084  0.029489767559660266  0.8955670227547615  1.0000
  H   H3        1.0  0.798151870588143  0.02948755487277305  0.6339288116444024  1.0000
  H   H4        1.0  0.8107695140702591  0.8180505408332265  0.5306139426910833  1.0000
  H   H5        1.0  0.7981450177672829  0.10443542617419879  0.9705120840653694  1.0000
  H   H6        1.0  0.8107882415149136  0.21255696707248722  0.18194766977937601  1.0000
  H   H7        1.0  0.1892215977785412  0.4693953176466437  0.18194757426728358  1.0000
  H   H8        1.0  0.201831666930353  0.3660732809790447  0.9705129787558137  1.0000
  H   H9        1.0  0.7982457464821167  0.3660501652114975  0.8955407935525985  1.0000
  H   H10       1.0  0.8108690343009786  0.4693618116852392  0.7874085922711559  1.0000
  H   H11       1.0  0.18913985313528772  0.21256422864543367  0.5306223309677875  1.0000
  H   H12       1.0  0.20177007765839508  0.10445216581405967  0.6339507571589708  1.0000
  C   C1        1.0  0.5000116544167527  0.41229833048875963  0.3245840717850328  1.0000
  C   C2        1.0  0.5000017099774184  0.41228350478272097  0.5876972859868135  1.0000
  C   C3        1.0  0.4999958267644048  0.6754061039304986  0.5877070592825007  1.0000
  C   C4        1.0  0.33026622421710533  0.8641618897544774  0.7549874795537975  1.0000
  C   C5        1.0  0.33305921321167636  0.9833237956126483  0.815075126311136  1.0000
  C   C6        1.0  0.49999037178322686  0.04507110195658723  0.7725359810059376  1.0000
  C   C7        1.0  0.6669595124151328  0.983323167337588  0.6682596466321302  1.0000
  C   C8        1.0  0.6696925947000026  0.8641633720768596  0.6091836997423742  1.0000
  C   C9        1.0  0.500002580816485  0.8035025328329723  0.6517626688064979  1.0000
  C   C10       1.0  0.6669320241971803  0.18492850282047607  0.016675847844872648  1.0000
  C   C11       1.0  0.6697359571441196  0.2450187242630406  0.13583388127258192  1.0000
  C   C12       1.0  0.49998658857592204  0.34824709018589317  0.19648913385429986  1.0000
  C   C13       1.0  0.3302943694156042  0.3908250156896499  0.1358286373757878  1.0000
  C   C14       1.0  0.33303585052814816  0.3317421321491523  0.016672645351505377  1.0000
  C   C15       1.0  0.49999579361795565  0.2274668751656609  0.9549304186821176  1.0000
  C   C16       1.0  0.6670005607293278  0.3317332928365035  0.8150566247125115  1.0000
  C   C17       1.0  0.6697732285555915  0.3908015036857292  0.7549654732085928  1.0000
  C   C18       1.0  0.500022442445598  0.34823123015373625  0.6517466690270269  1.0000
  C   C19       1.0  0.3302511670902177  0.24501122657328997  0.6091792313932843  1.0000
  C   C20       1.0  0.3330239595044588  0.18493020542427985  0.6682584445624685  1.0000
  C   C21       1.0  0.5000008168377195  0.22746292927288184  0.7725375514974858  1.0000
  N   N1        1.0  0.4999948538763166  0.16666789956816072  0.8333401519857733  1.0000
  O   O1        1.0  0.7362286460336875  0.625685102807829  0.6058515505628252  1.0000
  O   O2        1.0  0.736232130940202  0.4801621210463622  0.3743077805792866  1.0000
  O   O3        1.0  0.7362242268287745  0.3941445859260356  0.5198339173004314  1.0000
  O   O4        1.0  0.2637604392270276  0.6256973899486908  0.5198464854365028  1.0000
  O   O5        1.0  0.2637636077032753  0.48014993694065594  0.6058431401755515  1.0000
  O   O6        1.0  0.26378996697813756  0.3941522440616225  0.3743051770896173  1.0000
