data_image0
_chemical_formula_structural       CuSiH16C24N4F6
_chemical_formula_sum              "Cu1 Si1 H16 C24 N4 F6"
_cell_length_a       8.146346925718507
_cell_length_b       13.721019047628177
_cell_length_c       13.721083712340803
_cell_angle_alpha    89.99932216708478
_cell_angle_beta     89.99959728019813
_cell_angle_gamma    89.99844638222612

_space_group_name_H-M_alt    "P 1"
_space_group_IT_number       1

loop_
  _space_group_symop_operation_xyz
  'x, y, z'

loop_
  _atom_site_type_symbol
  _atom_site_label
  _atom_site_symmetry_multiplicity
  _atom_site_fract_x
  _atom_site_fract_y
  _atom_site_fract_z
  _atom_site_occupancy
  Cu  Cu1       1.0  0.5000150574317032  0.49999033478628974  0.500006161604581  1.0000
  Si  Si1       1.0  1.3027274803800003e-05  0.4999948904067041  0.5000056530210768  1.0000
  H   H1        1.0  0.24451767810754174  0.6551906756406183  0.4999845932338472  1.0000
  H   H2        1.0  0.23425351746863038  0.8366284440769932  0.5000032173003033  1.0000
  H   H3        1.0  0.7657616941910277  0.8366229185130863  0.5000036660876999  1.0000
  H   H4        1.0  0.7555074554333814  0.6551860359634604  0.4999785217133378  1.0000
  H   H5        1.0  0.2342598280122843  0.16335920891108913  0.4999802337182684  1.0000
  H   H6        1.0  0.244521432182971  0.34479754919016165  0.49997695465915354  1.0000
  H   H7        1.0  0.7555112089053536  0.3447870783610868  0.5000860344274469  1.0000
  H   H8        1.0  0.7657680042454587  0.1633485811248221  0.5000754272387693  1.0000
  H   H9        1.0  0.2445191666486224  0.5000139652221236  0.6552057578547515  1.0000
  H   H10       1.0  0.23425450015866997  0.49998964859363343  0.8366426123744259  1.0000
  H   H11       1.0  0.7657626767541358  0.4999892246873117  0.8366437899370565  1.0000
  H   H12       1.0  0.7555064887217284  0.500014427186848  0.6552062455573872  1.0000
  H   H13       1.0  0.23426007207979888  0.5000227837089143  0.16337071951694068  1.0000
  H   H14       1.0  0.24452116962973489  0.5000252759121011  0.34480753491808247  1.0000
  H   H15       1.0  0.7555097219024064  0.49991568774953526  0.344805108047673  1.0000
  H   H16       1.0  0.7657707060743988  0.499926885847053  0.16336825361258175  1.0000
  C   C1        1.0  0.3569093563685115  0.698213587766496  0.49999068468132163  1.0000
  C   C2        1.0  0.3521207396624888  0.7993139869019786  0.500000299061085  1.0000
  C   C3        1.0  0.5000090677308863  0.8524612397873172  0.5000055344438221  1.0000
  C   C4        1.0  0.6478962600376049  0.7993095367353791  0.4999997376756581  1.0000
  C   C5        1.0  0.6431124879639398  0.6982092108758167  0.49998795504859556  1.0000
  C   C6        1.0  0.500012735818501  0.9555374030279681  0.5000129416249519  1.0000
  C   C7        1.0  0.5000124687543277  0.0444425376526354  0.5000197881492382  1.0000
  C   C8        1.0  0.5000149093388302  0.14751797211540219  0.5000235513099722  1.0000
  C   C9        1.0  0.3521264896110239  0.20067259058886583  0.49999946704153314  1.0000
  C   C10       1.0  0.3569151719886818  0.301770730053292  0.49999958878569817  1.0000
  C   C11       1.0  0.6431170757033725  0.3017648952137435  0.5000544347910816  1.0000
  C   C12       1.0  0.6479020096474882  0.2006681401118513  0.5000513796454127  1.0000
  C   C13       1.0  0.3569115982644746  0.5000055624197799  0.6982291141671408  1.0000
  C   C14       1.0  0.3521222966155193  0.4999926112630177  0.7993282805959863  1.0000
  C   C15       1.0  0.5000091001566958  0.499984605713543  0.8524768630543842  1.0000
  C   C16       1.0  0.647896589349827  0.4999918051413986  0.7993291768021462  1.0000
  C   C17       1.0  0.6431122746353921  0.5000062871968611  0.6982285709251169  1.0000
  C   C18       1.0  0.5000096626400463  0.4999767078495481  0.9555554558472676  1.0000
  C   C19       1.0  0.5000155427233111  0.49997553821146573  0.04445759634473489  1.0000
  C   C20       1.0  0.5000161050078801  0.49997711488828145  0.14753181624914186  1.0000
  C   C21       1.0  0.35212861497859643  0.5000034406369808  0.2006846039409352  1.0000
  C   C22       1.0  0.35691292938008706  0.5000028059667656  0.3017822945144316  1.0000
  C   C23       1.0  0.6431172897103252  0.49994814124366377  0.3017817515930331  1.0000
  C   C24       1.0  0.647902908979539  0.4999501602873623  0.20068404284665314  1.0000
  N   N1        1.0  0.500012725110622  0.6485784239856756  0.4999856049992316  1.0000
  N   N2        1.0  0.5000149346424578  0.3514029744102275  0.5000274470156825  1.0000
  N   N3        1.0  0.5000140979723469  0.5000105912498968  0.6485964654883741  1.0000
  N   N4        1.0  0.5000147892375111  0.49997445118081874  0.3514165865026582  1.0000
  F   F1        1.0  0.2140230636443192  0.4999866931939252  0.500003789246122  1.0000
  F   F2        1.0  0.7860033683692436  0.5000034509304143  0.5000070763031699  1.0000
  F   F3        1.0  2.007738163460001e-05  0.5881200615246697  0.41189110044380317  1.0000
  F   F4        1.0  7.2046993083000016e-06  0.41187044809250045  0.5881194767862964  1.0000
  F   F5        1.0  2.13953270816e-05  0.5881095444582627  0.58812718001122  1.0000
  F   F6        1.0  9.765472981000047e-07  0.4118824228184792  0.4118826684141722  1.0000
