data_image0
_chemical_formula_structural       Ba4H24C20N4O16
_chemical_formula_sum              "Ba4 H24 C20 N4 O16"
_cell_length_a       8.131099055004436
_cell_length_b       9.74769334543977
_cell_length_c       10.418195403737034
_cell_angle_alpha    118.8102469454043
_cell_angle_beta     90.00010713804733
_cell_angle_gamma    89.99990135878939

_space_group_name_H-M_alt    "P 1"
_space_group_IT_number       1

loop_
  _space_group_symop_operation_xyz
  'x, y, z'

loop_
  _atom_site_type_symbol
  _atom_site_label
  _atom_site_symmetry_multiplicity
  _atom_site_fract_x
  _atom_site_fract_y
  _atom_site_fract_z
  _atom_site_occupancy
  Ba  Ba1       1.0  0.5361827033283717  0.9488480529430707  0.27116762533409405  1.0000
  Ba  Ba2       1.0  0.0361835219523385  0.051152545599997296  0.22883226939213586  1.0000
  Ba  Ba3       1.0  0.4638151189797739  0.051153202258561216  0.7288305666954498  1.0000
  Ba  Ba4       1.0  0.9638143003632751  0.9488475675674196  0.7711711707360462  1.0000
  H   H1        1.0  0.5418399888642539  0.41854449808966643  0.8347120411526914  1.0000
  H   H2        1.0  0.04183955929964611  0.5814554717177814  0.6652877643319568  1.0000
  H   H3        1.0  0.4581566036012675  0.5814614642628158  0.16529305684368706  1.0000
  H   H4        1.0  0.9581607227035036  0.41853758311986416  0.3347057978525427  1.0000
  H   H5        1.0  0.6856139890904984  0.5112663914049451  0.9799915337876752  1.0000
  H   H6        1.0  0.18561463259922556  0.488733455232314  0.5200093856554914  1.0000
  H   H7        1.0  0.31438383321992097  0.4887395661534271  0.02001260219687136  1.0000
  H   H8        1.0  0.8143856494045068  0.5112584288097111  0.4799836525527395  1.0000
  H   H9        1.0  0.3941364314323295  0.601486097882294  0.7609237064211525  1.0000
  H   H10       1.0  0.8941379029036302  0.3985147291652709  0.7390769953601504  1.0000
  H   H11       1.0  0.6058626207252757  0.398519864469094  0.2390813915765263  1.0000
  H   H12       1.0  0.10586483879101391  0.6014818428516978  0.26091910076692665  1.0000
  H   H13       1.0  0.2772483383588096  0.6190445010436109  0.9131831433609319  1.0000
  H   H14       1.0  0.7772494810012134  0.380956430038097  0.586817434888715  1.0000
  H   H15       1.0  0.7227507137964863  0.38096379810544784  0.08682204057679845  1.0000
  H   H16       1.0  0.22275203085026626  0.619038980770938  0.413180061286411  1.0000
  H   H17       1.0  0.6333217361203225  0.808231984045044  0.8780424481211425  1.0000
  H   H18       1.0  0.13332200789747622  0.19176438716010583  0.6219549201037536  1.0000
  H   H19       1.0  0.3666834652709596  0.19177164629950744  0.12196352595222486  1.0000
  H   H20       1.0  0.8666819636415255  0.8082263117039618  0.3780347080927056  1.0000
  H   H21       1.0  0.7044967069996914  0.6140273898138845  0.7864375710267948  1.0000
  H   H22       1.0  0.20449802698538377  0.3859712644276954  0.7135618823839065  1.0000
  H   H23       1.0  0.2955011153090228  0.3859750409769306  0.21356210699150313  1.0000
  H   H24       1.0  0.795499795331999  0.6140229899680634  0.2864379758504611  1.0000
  C   C1        1.0  0.5568810447310142  0.5137630849490976  0.9490905174966497  1.0000
  C   C2        1.0  0.0568817674972451  0.4862357006752162  0.5509087799082619  1.0000
  C   C3        1.0  0.4431167775788296  0.4862416970200842  0.05091213249914263  1.0000
  C   C4        1.0  0.9431185145087896  0.5137561929539488  0.4490861823249402  1.0000
  C   C5        1.0  0.379624321352324  0.6700850310539651  0.8811147050925566  1.0000
  C   C6        1.0  0.8796256463636782  0.3299146381142677  0.6188854573754978  1.0000
  C   C7        1.0  0.6203722711108951  0.3299209217113841  0.11888846887885755  1.0000
  C   C8        1.0  0.1203734057968688  0.6700807774894244  0.3811130008108135  1.0000
  C   C9        1.0  0.3253178874922682  0.8370586716222875  0.9231401050111924  1.0000
  C   C10       1.0  0.8253194567601767  0.16293987029104784  0.5768585140752689  1.0000
  C   C11       1.0  0.6746836243585721  0.1629472955215761  0.07686595500027238  1.0000
  C   C12       1.0  0.17468082524123227  0.8370566969334448  0.42313662003802904  1.0000
  C   C13       1.0  0.6693169929254382  0.7096964370018881  0.8955617241932426  1.0000
  C   C14       1.0  0.16931947877287712  0.29030225334376075  0.6044386540513854  1.0000
  C   C15       1.0  0.3306832890799569  0.2903060129620981  0.10444180187628396  1.0000
  C   C16       1.0  0.8306832629223492  0.7096931478775944  0.3955569180994231  1.0000
  C   C17       1.0  0.8218032000845525  0.7673814204514856  0.9919350501925236  1.0000
  C   C18       1.0  0.32180434418528153  0.2326183001794035  0.5080650511680176  1.0000
  C   C19       1.0  0.1781995416267677  0.23261170149499583  0.008071980168047298  1.0000
  C   C20       1.0  0.6782008571876119  0.7673875998528813  0.49192754067062316  1.0000
  N   N1        1.0  0.5297012994836336  0.6677409957657119  0.9585963411929508  1.0000
  N   N2        1.0  0.029702317633841298  0.3322589896384613  0.5414044134763429  1.0000
  N   N3        1.0  0.4702965228273541  0.33226613738183625  0.04140928078034275  1.0000
  N   N4        1.0  0.9702967345267126  0.6677340795804272  0.458592034744953  1.0000
  O   O1        1.0  0.32429105742233594  0.9362461690510954  0.05907844894409181  1.0000
  O   O2        1.0  0.8242937046536908  0.0637530022702535  0.44092122628998  1.0000
  O   O3        1.0  0.6757030753436196  0.06376093533670261  0.9409214009523479  1.0000
  O   O4        1.0  0.17570165797677362  0.9362401005052449  0.5590819560167545  1.0000
  O   O5        1.0  0.2814134619503221  0.8657351937821788  0.8213734624601653  1.0000
  O   O6        1.0  0.7814141046588717  0.1342645532099098  0.6786246721898335  1.0000
  O   O7        1.0  0.7185892797379552  0.13426956421697872  0.17862437747580626  1.0000
  O   O8        1.0  0.2185849475027908  0.8657355599569599  0.32137876793899506  1.0000
  O   O9        1.0  0.9467505398088606  0.7990281092235563  0.9367315355231438  1.0000
  O   O10       1.0  0.4467518816813937  0.20097033419822452  0.5632691359225034  1.0000
  O   O11       1.0  0.053252201890345005  0.2009731747372854  0.06327242858390038  1.0000
  O   O12       1.0  0.5532533197036005  0.7990297502045041  0.4367285321346727  1.0000
  O   O13       1.0  0.8165457720369462  0.7907994126604551  0.12297463607651343  1.0000
  O   O14       1.0  0.3165478492766597  0.20920093155674382  0.3770245929355481  1.0000
  O   O15       1.0  0.1834569696732942  0.20918197256845167  0.8770213824464859  1.0000
  O   O16       1.0  0.6834548924040718  0.7908167004006472  0.6229780487268781  1.0000
