data_image0
_chemical_formula_structural       K4H24C36Br4O8
_chemical_formula_sum              "K4 H24 C36 Br4 O8"
_cell_length_a       3.928589065080127
_cell_length_b       11.33553402590506
_cell_length_c       21.2094844623373
_cell_angle_alpha    90.31583150368182
_cell_angle_beta     95.33160483887792
_cell_angle_gamma    89.97614200276664

_space_group_name_H-M_alt    "P 1"
_space_group_IT_number       1

loop_
  _space_group_symop_operation_xyz
  'x, y, z'

loop_
  _atom_site_type_symbol
  _atom_site_label
  _atom_site_symmetry_multiplicity
  _atom_site_fract_x
  _atom_site_fract_y
  _atom_site_fract_z
  _atom_site_occupancy
  K   K1        1.0  0.27614388905148957  0.46041688200827485  0.4851346289964982  1.0000
  K   K2        1.0  0.21074187954076953  0.9603065800121015  0.4853483535279395  1.0000
  K   K3        1.0  0.8087316883065582  0.7106864489643101  0.5882200532012689  1.0000
  K   K4        1.0  0.7809698002387366  0.2105602609886432  0.5882844190472414  1.0000
  H   H1        1.0  0.4504216987492812  0.4523261725076041  0.8426955901721699  1.0000
  H   H2        1.0  0.3901390669817387  0.9520332587966963  0.8428040488959426  1.0000
  H   H3        1.0  0.04703048209104569  0.21015863556633008  0.9733057442214844  1.0000
  H   H4        1.0  0.924654207068187  0.7100993515241426  0.973568746500689  1.0000
  H   H5        1.0  0.8576434160496761  0.07690595630982949  0.8840860466367034  1.0000
  H   H6        1.0  0.02797291727920029  0.5771795468840322  0.8844458193538999  1.0000
  H   H7        1.0  0.9593528121981337  0.1301974239413681  0.7734522431739067  1.0000
  H   H8        1.0  0.816704511958214  0.6303733215455836  0.7737230983522353  1.0000
  H   H9        1.0  0.2350222443838419  0.2518930476912828  0.7010655435811232  1.0000
  H   H10       1.0  0.4676975020236753  0.7516864322168931  0.7011653094278787  1.0000
  H   H11       1.0  0.29577147893431993  0.5133907798010569  0.7410815116462786  1.0000
  H   H12       1.0  0.44545831456971285  0.013160095922266602  0.7412444855290589  1.0000
  H   H13       1.0  0.6572211998243914  0.19979107832998008  0.23079080303726587  1.0000
  H   H14       1.0  0.5726124867945046  0.6999863760599893  0.2306323699129891  1.0000
  H   H15       1.0  0.13223868449539822  0.9569442378053523  0.0978897990069925  1.0000
  H   H16       1.0  0.9643831190598746  0.4571626941638129  0.09769885704327663  1.0000
  H   H17       1.0  0.012088741299599798  0.8263050430487406  0.1864354847681753  1.0000
  H   H18       1.0  0.1733503706869897  0.3263705938564385  0.18619345860423664  1.0000
  H   H19       1.0  0.2102498512934829  0.8814353046099226  0.29777594661291573  1.0000
  H   H20       1.0  0.08686562388139411  0.3814061241611597  0.2975597621731794  1.0000
  H   H21       1.0  0.5473898417346843  0.002539282753289699  0.3719003044198388  1.0000
  H   H22       1.0  0.8254092664024385  0.5025574539580475  0.3717146595751188  1.0000
  H   H23       1.0  0.6197309525564663  0.2616682551408046  0.3321120338907306  1.0000
  H   H24       1.0  0.7121167480951839  0.7616825386011356  0.3319154557779456  1.0000
  C   C1        1.0  0.2025696055468984  0.29640689768193335  0.7999493052214464  1.0000
  C   C2        1.0  0.5972407492668523  0.7962209306157249  0.8000835192593246  1.0000
  C   C3        1.0  0.31254803283356847  0.371322003429313  0.8509974407053704  1.0000
  C   C4        1.0  0.5370494126717559  0.8711060995748309  0.8510664090887232  1.0000
  C   C5        1.0  0.2559179271135079  0.3388584800393275  0.9122919481483225  1.0000
  C   C6        1.0  0.6548641850329775  0.8387576846222017  0.9124055952569847  1.0000
  C   C7        1.0  0.0910930498459948  0.2337762556080278  0.9250548342395889  1.0000
  C   C8        1.0  0.8333602061661125  0.7338382444231613  0.925279448428121  1.0000
  C   C9        1.0  0.9864518334294206  0.1590131503118712  0.8744783146087941  1.0000
  C   C10       1.0  0.8887621895630814  0.6591215583471595  0.8747574024743515  1.0000
  C   C11       1.0  0.04339205300109228  0.1890705191314694  0.8127567838191255  1.0000
  C   C12       1.0  0.770545855961295  0.6891098332130811  0.8129997855331866  1.0000
  C   C13       1.0  0.24590210546378444  0.32646866738689795  0.7343116621397102  1.0000
  C   C14       1.0  0.48909080388436615  0.8262596371882367  0.7344278379001139  1.0000
  C   C15       1.0  0.28774045635318396  0.4350881502595598  0.7107498238121793  1.0000
  C   C16       1.0  0.4236663835022228  0.934896308958116  0.7108689328277151  1.0000
  C   C17       1.0  0.3103268173931042  0.45735706597479714  0.6418898407862629  1.0000
  C   C18       1.0  0.3326926140207219  0.9572348829134472  0.6420082421589939  1.0000
  C   C19       1.0  0.4404268155942291  0.04552952815856769  0.27251366593321796  1.0000
  C   C20       1.0  0.8311727508320246  0.5455408198660476  0.2723458783538177  1.0000
  C   C21       1.0  0.5095230350992423  0.11906900655747417  0.2219349617931599  1.0000
  C   C22       1.0  0.7110863608951234  0.6191438212672509  0.22177980018864224  1.0000
  C   C23       1.0  0.3992251803649935  0.0855979551044328  0.160244804043387  1.0000
  C   C24       1.0  0.7594071349275424  0.5857163884178647  0.1600836250943516  1.0000
  C   C25       1.0  0.21932949087207024  0.9810330635960867  0.1464836243915641  1.0000
  C   C26       1.0  0.92575352802929  0.4811377323108132  0.1463088033045565  1.0000
  C   C27       1.0  0.1537388979779024  0.9078485491047558  0.19664590542151936  1.0000
  C   C28       1.0  0.041903710096015304  0.40790415601588836  0.1964336742928765  1.0000
  C   C29       1.0  0.26448844772873065  0.9389346710960356  0.2587962409695308  1.0000
  C   C30       1.0  0.993471260527926  0.438944130033505  0.2585959454809981  1.0000
  C   C31       1.0  0.5426110950264231  0.076093763599097  0.3385092561227054  1.0000
  C   C32       1.0  0.7960237325586023  0.5761596565166087  0.33835055031224937  1.0000
  C   C33       1.0  0.6226122124445084  0.18395290674001066  0.3623730540867172  1.0000
  C   C34       1.0  0.7401412584370917  0.6840582993804104  0.3622227534005731  1.0000
  C   C35       1.0  0.7055340166233676  0.2062587421021576  0.431584191103795  1.0000
  C   C36       1.0  0.7276713790312073  0.7064061745614582  0.4314557310713667  1.0000
  Br  Br1       1.0  0.4124258360766929  0.44129610159767196  0.9808132755981093  1.0000
  Br  Br2       1.0  0.5653374624171335  0.9412303347563481  0.9808001689752075  1.0000
  Br  Br3       1.0  0.49956358945457424  0.18616243298338725  0.0924424171756613  1.0000
  Br  Br4       1.0  0.5915631452241287  0.6863612642334901  0.09227474673470232  1.0000
  O   O1        1.0  0.335000397914463  0.5647327665062534  0.6250062662470556  1.0000
  O   O2        1.0  0.29134763569326333  0.064623852345207  0.6251283297117994  1.0000
  O   O3        1.0  0.2986648259421116  0.3695909768074087  0.6036730532001118  1.0000
  O   O4        1.0  0.30600421002218076  0.8694531639442358  0.6038085398507179  1.0000
  O   O5        1.0  0.7639865499661769  0.3129749180919532  0.4488487402581214  1.0000
  O   O6        1.0  0.6870553804319924  0.8131497785703272  0.44876804061754433  1.0000
  O   O7        1.0  0.708576901128289  0.11914202729360569  0.4696463026314674  1.0000
  O   O8        1.0  0.7630322592948743  0.6192606801867342  0.4695051614394572  1.0000
