data_image0
_chemical_formula_structural       CdSi2H36C32Br2N4
_chemical_formula_sum              "Cd1 Si2 H36 C32 Br2 N4"
_cell_length_a       8.690849275284142
_cell_length_b       10.55736191556047
_cell_length_c       12.58920414555513
_cell_angle_alpha    76.70004563724572
_cell_angle_beta     87.86463617117091
_cell_angle_gamma    66.44181230272443

_space_group_name_H-M_alt    "P 1"
_space_group_IT_number       1

loop_
  _space_group_symop_operation_xyz
  'x, y, z'

loop_
  _atom_site_type_symbol
  _atom_site_label
  _atom_site_symmetry_multiplicity
  _atom_site_fract_x
  _atom_site_fract_y
  _atom_site_fract_z
  _atom_site_occupancy
  Cd  Cd1       1.0  4.670723754450648e-06  0.9999988291034468  0.9999997404834812  1.0000
  Si  Si1       1.0  0.7137910319458527  0.6921468800484336  0.6484448294567072  1.0000
  Si  Si2       1.0  0.2862088499840922  0.30785172427299307  0.3515559981591848  1.0000
  H   H1        1.0  0.7037321388305032  0.3253062699559948  0.984100486213684  1.0000
  H   H2        1.0  0.2962689451055666  0.6746922910569567  0.015897146917964688  1.0000
  H   H3        1.0  0.6042468949920448  0.5725317693137202  0.8655979718839786  1.0000
  H   H4        1.0  0.3957500918307489  0.42746574648276703  0.13439757049557235  1.0000
  H   H5        1.0  0.9612947291293705  0.3965500313662462  0.6341283263501934  1.0000
  H   H6        1.0  0.03870340267466321  0.6034474820334028  0.36586798657401687  1.0000
  H   H7        1.0  0.04984442498624018  0.16108605361075232  0.7650286958915656  1.0000
  H   H8        1.0  0.9501571417615011  0.8389114525984028  0.234969928666615  1.0000
  H   H9        1.0  0.14598755746683886  0.7886488668492719  0.8343031061846489  1.0000
  H   H10       1.0  0.8540117061505798  0.21135606968359621  0.16569410696713757  1.0000
  H   H11       1.0  0.05616031908825651  0.6673984650421118  0.7157251988928761  1.0000
  H   H12       1.0  0.9438352732026657  0.33260441238212496  0.28427487996224693  1.0000
  H   H13       1.0  0.5405832217346146  0.9323537015869977  0.7640436345402222  1.0000
  H   H14       1.0  0.45941559192718995  0.0676470859829621  0.23596234727463636  1.0000
  H   H15       1.0  0.6541571686548266  0.03338985215805929  0.8855844234974766  1.0000
  H   H16       1.0  0.3458437898264889  0.9666087988604989  0.11442193269776615  1.0000
  H   H17       1.0  0.4219273437394052  0.7875194320552199  0.7005314830141599  1.0000
  H   H18       1.0  0.5780709314447137  0.21248763044989966  0.2994653332961191  1.0000
  H   H19       1.0  0.4425777189739364  0.8863971023583589  0.5702868194323257  1.0000
  H   H20       1.0  0.5574258684974326  0.11360353652472104  0.4297087634628837  1.0000
  H   H21       1.0  0.43099277944101994  0.5887506121428887  0.6152920919838465  1.0000
  H   H22       1.0  0.5690046314056831  0.41125330710915625  0.3847077435282812  1.0000
  H   H23       1.0  0.34502337383175796  0.8345074274410395  0.40907288321758967  1.0000
  H   H24       1.0  0.654979505850136  0.16549219176437902  0.5909260925826201  1.0000
  H   H25       1.0  0.32296232146657633  0.6630849001422875  0.42505709974515327  1.0000
  H   H26       1.0  0.6770367399829881  0.33691794554447096  0.5749429117266088  1.0000
  H   H27       1.0  0.9647507186632682  0.624769681479947  0.5423326334307176  1.0000
  H   H28       1.0  0.035251655397004804  0.37523100889391975  0.4576669369545243  1.0000
  H   H29       1.0  0.7924824059343724  0.6161210882482707  0.47640676674649274  1.0000
  H   H30       1.0  0.20751927174139687  0.3838785742656158  0.5235954035379748  1.0000
  H   H31       1.0  0.6744528711419594  0.8738808598294979  0.3952732467395066  1.0000
  H   H32       1.0  0.3255476615525695  0.12611880508121945  0.6047281530002947  1.0000
  H   H33       1.0  0.008851445217210428  0.854330281129528  0.488955338276355  1.0000
  H   H34       1.0  0.9911497496468872  0.14567043618815492  0.5110458405815733  1.0000
  H   H35       1.0  0.8531572523315207  0.003549947476017197  0.38691054888604975  1.0000
  H   H36       1.0  0.14684111273353997  0.996451870350761  0.6130920624849381  1.0000
  C   C1        1.0  0.7583533475684804  0.34836382962039647  0.9061799909922283  1.0000
  C   C2        1.0  0.24164477283057564  0.6516336919615782  0.09381711493776379  1.0000
  C   C3        1.0  0.7026368214068697  0.4847327138100894  0.8387103088851758  1.0000
  C   C4        1.0  0.2973573242119159  0.5152659106778118  0.16128745901320224  1.0000
  C   C5        1.0  0.7752313733298382  0.5075906292365603  0.7382489078858112  1.0000
  C   C6        1.0  0.22476394008013753  0.492407976489858  0.2617480445456692  1.0000
  C   C7        1.0  0.9001625184104969  0.38821729748116957  0.7109811634073323  1.0000
  C   C8        1.0  0.09983395138569047  0.6117812976660916  0.28901576656302547  1.0000
  C   C9        1.0  0.9502720719317923  0.2552312096212574  0.7832638448895749  1.0000
  C   C10       1.0  0.04972569939357634  0.7447695067045857  0.21673422932858688  1.0000
  C   C11       1.0  0.013081719215818934  0.8147970957198113  0.8167041164639383  1.0000
  C   C12       1.0  0.9869192962903813  0.18520151438710292  0.1832982747024019  1.0000
  C   C13       1.0  0.960877388300851  0.7499415405929427  0.7495600631217342  1.0000
  C   C14       1.0  0.039118001822224344  0.25005924598518453  0.2504428140533719  1.0000
  C   C15       1.0  0.7882380658602416  0.7898805152259886  0.7278649733933021  1.0000
  C   C16       1.0  0.21175879550779794  0.21011709057609818  0.2721392920498431  1.0000
  C   C17       1.0  0.6764754980640435  0.8969114656479106  0.7749918133553846  1.0000
  C   C18       1.0  0.3235210256352873  0.10308932671571111  0.22501262737016248  1.0000
  C   C19       1.0  0.7384577239827976  0.9549102671615947  0.8433547133836963  1.0000
  C   C20       1.0  0.2615432230935326  0.04508839203928261  0.15665243581733526  1.0000
  C   C21       1.0  0.4782632987634585  0.7778924779266633  0.6210511933703557  1.0000
  C   C22       1.0  0.521737604051843  0.22211139322325124  0.37894698874683996  1.0000
  C   C23       1.0  0.4193366799142737  0.6926628187740606  0.565850534259063  1.0000
  C   C24       1.0  0.5806659958368953  0.3073421269329729  0.43415057653826483  1.0000
  C   C25       1.0  0.3599543182817513  0.7317074095344795  0.4614594585973747  1.0000
  C   C26       1.0  0.6400457430060912  0.26829330199770846  0.5385401567101127  1.0000
  C   C27       1.0  0.8293789691900315  0.6814104080135197  0.5183682914661958  1.0000
  C   C28       1.0  0.1706232027023873  0.3185881915142376  0.4816340772390219  1.0000
  C   C29       1.0  0.7920275939601781  0.8256437486664369  0.4463394608160768  1.0000
  C   C30       1.0  0.20797295013932884  0.17435590806194773  0.5536611459179425  1.0000
  C   C31       1.0  0.8891018089178147  0.8982220196112111  0.44109071778512293  1.0000
  C   C32       1.0  0.11089872377671382  0.10177764529950652  0.5589106819546785  1.0000
  Br  Br1       1.0  0.6978586697336625  0.0678754168327416  0.09935545386865388  1.0000
  Br  Br2       1.0  0.302147669464773  0.9321167614698072  0.9006449108768279  1.0000
  N   N1        1.0  0.881559283367288  0.23581254411095645  0.8796186756874175  1.0000
  N   N2        1.0  0.11844109277929953  0.764184997224348  0.12038235034923865  1.0000
  N   N3        1.0  0.9037882790700493  0.9143291574794861  0.8642030969665838  1.0000
  N   N4        1.0  0.0962128929840915  0.08567157620284861  0.1357996679029085  1.0000
