data_image0
_chemical_formula_structural       Cu6H60C42N18O12
_chemical_formula_sum              "Cu6 H60 C42 N18 O12"
_cell_length_a       12.204847733801722
_cell_length_b       12.208000990783416
_cell_length_c       12.2791
_cell_angle_alpha    106.1631298119008
_cell_angle_beta     106.16742019854368
_cell_angle_gamma    105.98570574128163

_space_group_name_H-M_alt    "P 1"
_space_group_IT_number       1

loop_
  _space_group_symop_operation_xyz
  'x, y, z'

loop_
  _atom_site_type_symbol
  _atom_site_label
  _atom_site_symmetry_multiplicity
  _atom_site_fract_x
  _atom_site_fract_y
  _atom_site_fract_z
  _atom_site_occupancy
  Cu  Cu1       1.0  0.9775360099342405  0.600498596324492  0.1131263420920873  1.0000
  Cu  Cu2       1.0  0.11262996952636682  0.9763098268441653  0.5998778523059441  1.0000
  Cu  Cu3       1.0  0.6005058273964821  0.11261367881267861  0.9774519593774471  1.0000
  Cu  Cu4       1.0  0.0224599938053203  0.3994970255879764  0.8868703629426236  1.0000
  Cu  Cu5       1.0  0.88736950652072  0.023690410383011305  0.4001219054610985  1.0000
  Cu  Cu6       1.0  0.39949144262587305  0.8873874814774396  0.022549886491297924  1.0000
  H   H1        1.0  0.1638842030357353  0.8544119809700278  0.246848414582935  1.0000
  H   H2        1.0  0.24719639123587459  0.1632178353689824  0.8541092660695995  1.0000
  H   H3        1.0  0.854656091890142  0.2479060910249373  0.1643356735113102  1.0000
  H   H4        1.0  0.8361183321202716  0.1455873331942072  0.7531560063185196  1.0000
  H   H5        1.0  0.7528008188157003  0.8367787096064347  0.1458880282935765  1.0000
  H   H6        1.0  0.14534282432981627  0.7520904539504727  0.8356596498773428  1.0000
  H   H7        1.0  0.3227406947206717  0.9123387958379754  0.27322997646775354  1.0000
  H   H8        1.0  0.2736380591717733  0.3220963518519043  0.9117110628629348  1.0000
  H   H9        1.0  0.9127026458727058  0.2741653855729922  0.3223638046629134  1.0000
  H   H10       1.0  0.6772607807518439  0.0876577491374348  0.7267741991421702  1.0000
  H   H11       1.0  0.7263649758405818  0.6779020392493891  0.088289983343607  1.0000
  H   H12       1.0  0.08729627034724528  0.7258311594024178  0.6776323331176712  1.0000
  H   H13       1.0  0.2313526545378792  0.062263364565176  0.23170985767551855  1.0000
  H   H14       1.0  0.2316144824727644  0.23136664924653166  0.060688923083212394  1.0000
  H   H15       1.0  0.0624272931388177  0.2318300268429567  0.2315786903618644  1.0000
  H   H16       1.0  0.7686490275339394  0.937735949599059  0.7682951415172355  1.0000
  H   H17       1.0  0.7683839338908313  0.7686308187918202  0.9393097750003605  1.0000
  H   H18       1.0  0.9375721229374887  0.7681655950695118  0.7684181446834798  1.0000
  H   H19       1.0  0.11861662072944067  0.9475444164110557  0.08905532809704649  1.0000
  H   H20       1.0  0.0884210355312689  0.11856005027916441  0.9463828925096607  1.0000
  H   H21       1.0  0.9473608070695078  0.08889926879319891  0.11901234458146359  1.0000
  H   H22       1.0  0.8813857677980363  0.0524567438790626  0.9109503775513447  1.0000
  H   H23       1.0  0.9115780872879853  0.8814392638850707  0.053615697637624665  1.0000
  H   H24       1.0  0.05263860900679875  0.9110963531192697  0.8809844904638809  1.0000
  H   H25       1.0  0.2765019709565451  0.0008390642134515002  0.10941355227662801  1.0000
  H   H26       1.0  0.1085406323930584  0.2764379665339547  0.9993495603132914  1.0000
  H   H27       1.0  0.0007518912392753978  0.10874604508952501  0.275961225770871  1.0000
  H   H28       1.0  0.7235000643430993  0.9991611730137251  0.8905926145358761  1.0000
  H   H29       1.0  0.8914598433667464  0.7235604245673386  0.0006483344155157251  1.0000
  H   H30       1.0  0.9992458186686618  0.8912495768229506  0.7240367658570578  1.0000
  H   H31       1.0  0.28206462871089855  0.630702138819821  0.807444960516186  1.0000
  H   H32       1.0  0.8063351226545095  0.2826972563374639  0.6302900674386862  1.0000
  H   H33       1.0  0.6304088793989279  0.8070154681340043  0.2818417242912473  1.0000
  H   H34       1.0  0.7179285225190526  0.36929717534441414  0.19255523449434975  1.0000
  H   H35       1.0  0.1936653531052954  0.7173011347638295  0.36970782729012797  1.0000
  H   H36       1.0  0.3695905966481589  0.1929847690931723  0.7181580334757953  1.0000
  H   H37       1.0  0.22088796646508507  0.4844972765180202  0.814072399171252  1.0000
  H   H38       1.0  0.8135620079690469  0.2212120338316268  0.4850538209966971  1.0000
  H   H39       1.0  0.4843427402288398  0.814273512039776  0.22079551439180278  1.0000
  H   H40       1.0  0.7791048315370331  0.5155011145832732  0.18592662821952652  1.0000
  H   H41       1.0  0.18644173349897386  0.7787882033955498  0.5149471172735502  1.0000
  H   H42       1.0  0.5156575889024352  0.1857267251874006  0.7792061082597499  1.0000
  H   H43       1.0  0.4494308339664244  0.5497753646487951  0.8640145745244965  1.0000
  H   H44       1.0  0.8635329607178761  0.4497504182266638  0.5500993278053059  1.0000
  H   H45       1.0  0.5496050413332512  0.86372291685678  0.44798348846624236  1.0000
  H   H46       1.0  0.5505600512680217  0.45022025726368053  0.13598071390636327  1.0000
  H   H47       1.0  0.1364633962495176  0.5502461267487463  0.44989773045722364  1.0000
  H   H48       1.0  0.4504014659866299  0.1362800895592216  0.5520214248645559  1.0000
  H   H49       1.0  0.4186516818426255  0.5424056301271492  0.9959343100711423  1.0000
  H   H50       1.0  0.9961960549009633  0.4186025823426079  0.5429349038640581  1.0000
  H   H51       1.0  0.5421778600980359  0.9965996733522078  0.41782290683756435  1.0000
  H   H52       1.0  0.5813434688127542  0.4575899917853192  0.004061344470997621  1.0000
  H   H53       1.0  0.0038012151213919813  0.5813985779475105  0.4570628700450143  1.0000
  H   H54       1.0  0.4578286472218451  0.0034033330637868  0.582182006493241  1.0000
  H   H55       1.0  0.47858780255557315  0.6874954323961121  0.985472288515595  1.0000
  H   H56       1.0  0.985490648497958  0.4789072073467935  0.6872302465936287  1.0000
  H   H57       1.0  0.6873215243968359  0.9857739911791372  0.4776019956778229  1.0000
  H   H58       1.0  0.5214066416441412  0.31249834339048027  0.014522659570893411  1.0000
  H   H59       1.0  0.014507121380752597  0.521093029880376  0.31276741018825754  1.0000
  H   H60       1.0  0.31268392323956107  0.014226246048039603  0.5223961572259697  1.0000
  C   C1        1.0  0.20970456410432795  0.761199239053127  0.10457599463074976  1.0000
  C   C2        1.0  0.1044239784067997  0.20926113793336754  0.760892973587886  1.0000
  C   C3        1.0  0.7613349023595218  0.10507779296163731  0.20972292017435024  1.0000
  C   C4        1.0  0.7902983242795044  0.23880099817404954  0.8954255219307896  1.0000
  C   C5        1.0  0.8955798230320012  0.7907437146085172  0.23910681544439427  1.0000
  C   C6        1.0  0.2386633673755512  0.8949215212025976  0.7902738050884252  1.0000
  C   C7        1.0  0.22888442822611668  0.8772319429995933  0.20270725440217058  1.0000
  C   C8        1.0  0.2027284597018308  0.22836669468799903  0.8765890594327105  1.0000
  C   C9        1.0  0.877445029225633  0.2033793808727538  0.22893298189327985  1.0000
  C   C10       1.0  0.7711174004742247  0.12276552503875851  0.7972972744355787  1.0000
  C   C11       1.0  0.7972710163452561  0.7716335425391778  0.12341232711820287  1.0000
  C   C12       1.0  0.12255509330633163  0.7966180871655979  0.7710621164319064  1.0000
  C   C13       1.0  0.21306074078028564  0.9779565711310669  0.15556418804602867  1.0000
  C   C14       1.0  0.1551139115340092  0.2129386206906574  0.9766849358999536  1.0000
  C   C15       1.0  0.9779807621144697  0.15550010611854503  0.21310662666684277  1.0000
  C   C16       1.0  0.7869421476035467  0.0220436660961099  0.8444446580429243  1.0000
  C   C17       1.0  0.844884004973231  0.7870597704106361  0.023314693702737154  1.0000
  C   C18       1.0  0.022016594565634807  0.8444945927309817  0.7868877541655265  1.0000
  C   C19       1.0  0.2330958233784628  0.6334150208036746  0.9603930464073756  1.0000
  C   C20       1.0  0.9601568302871469  0.2333170812410472  0.6335201014720369  1.0000
  C   C21       1.0  0.6333908182548739  0.9608715991544728  0.2331920026559899  1.0000
  C   C22       1.0  0.7669005335889307  0.3665815241717354  0.03960808381482652  1.0000
  C   C23       1.0  0.039842145903584585  0.7666840790490712  0.3664805878141237  1.0000
  C   C24       1.0  0.3666073048516765  0.0391295611356384  0.7668076361375924  1.0000
  C   C25       1.0  0.28335916991613885  0.581047814029894  0.8700305838127846  1.0000
  C   C26       1.0  0.8695160076888158  0.2837689324120731  0.5811809759229192  1.0000
  C   C27       1.0  0.5809079826479361  0.8702388181579153  0.2831467138288487  1.0000
  C   C28       1.0  0.7166336280859866  0.4189505770713994  0.12996925796992537  1.0000
  C   C29       1.0  0.1304848212988148  0.7162303817521618  0.4188164576417819  1.0000
  C   C30       1.0  0.4190913467706281  0.12976326519514464  0.716852699901267  1.0000
  C   C31       1.0  0.4152449212802764  0.5905775158336866  0.9324890136913027  1.0000
  C   C32       1.0  0.932344290964721  0.4154946294199675  0.5907768063146291  1.0000
  C   C33       1.0  0.590409382570904  0.9327209486401318  0.41432386183439013  1.0000
  C   C34       1.0  0.5847492296623853  0.40941995220466515  0.06750850388905857  1.0000
  C   C35       1.0  0.06765347891399641  0.5845056078072091  0.4092192216833936  1.0000
  C   C36       1.0  0.4095942122685869  0.06728113471292832  0.5856791755747324  1.0000
  C   C37       1.0  0.278766523455019  0.5210293385374456  0.2273789985977857  1.0000
  C   C38       1.0  0.22763772343981256  0.2788582375654869  0.5213627413625801  1.0000
  C   C39       1.0  0.5209994090604084  0.22767716667100052  0.2782970048910371  1.0000
  C   C40       1.0  0.7212544596090709  0.4789847446338484  0.7726248427552349  1.0000
  C   C41       1.0  0.7723580470134762  0.7211456919134563  0.4786378271038387  1.0000
  C   C42       1.0  0.4789998603873755  0.7723203013673513  0.7217092588205887  1.0000
  N   N1        1.0  0.1234037642350145  0.6499120016867935  0.0734996912866208  1.0000
  N   N2        1.0  0.07345354904985871  0.12294921456403783  0.650066456613871  1.0000
  N   N3        1.0  0.650128147313886  0.07358565460055641  0.12322920950527556  1.0000
  N   N4        1.0  0.8765972713519189  0.3500900816662664  0.9265034522125078  1.0000
  N   N5        1.0  0.9265488994483987  0.8770565610407886  0.3499348422288122  1.0000
  N   N6        1.0  0.34986997579266443  0.926415505689562  0.8767696148963752  1.0000
  N   N7        1.0  0.1389333175875507  0.5675840179711926  0.9808946646170114  1.0000
  N   N8        1.0  0.9808390159986118  0.1389486645219051  0.568018253613019  1.0000
  N   N9        1.0  0.5676952671733345  0.9810100633401789  0.1388357186117233  1.0000
  N   N10       1.0  0.8610632459791532  0.4324152961930423  0.019106474796082275  1.0000
  N   N11       1.0  0.019164432212356485  0.8610552649570309  0.43198281097529895  1.0000
  N   N12       1.0  0.4323032091610415  0.018992020012873905  0.8611667165854869  1.0000
  N   N13       1.0  0.2791797033533498  0.7547230294584537  0.03522679473497443  1.0000
  N   N14       1.0  0.0349535568917929  0.2791665405878092  0.7543483759194558  1.0000
  N   N15       1.0  0.7547199626933077  0.0360539154159412  0.2794357356088852  1.0000
  N   N16       1.0  0.720820419178622  0.24527443857989792  0.9647723755498774  1.0000
  N   N17       1.0  0.9650476852944504  0.7208383119540757  0.2456515192028306  1.0000
  N   N18       1.0  0.24527710072974426  0.9639444756853592  0.7205612147173639  1.0000
  O   O1        1.0  0.19033549780360198  0.4549186476338107  0.23080748080213453  1.0000
  O   O2        1.0  0.2313431053624057  0.1905100373481119  0.4553922405771971  1.0000
  O   O3        1.0  0.4552831581346197  0.2317395666747331  0.19030577163756854  1.0000
  O   O4        1.0  0.8096819862659856  0.5451018969780677  0.7691906653056864  1.0000
  O   O5        1.0  0.768648546298479  0.8094920460049408  0.5446156353422893  1.0000
  O   O6        1.0  0.544715491515248  0.768249593797151  0.8096939493659078  1.0000
  O   O7        1.0  0.368847448405262  0.5866831132852326  0.22591924446475523  1.0000
  O   O8        1.0  0.2258959305206645  0.3688577973844573  0.5869020188030447  1.0000
  O   O9        1.0  0.5862653730709865  0.22562150550120214  0.3679357052646566  1.0000
  O   O10       1.0  0.6311746210292809  0.4133226623195868  0.7740760832055998  1.0000
  O   O11       1.0  0.7741065779483731  0.6311525935350701  0.41309813080166435  1.0000
  O   O12       1.0  0.4137292777280308  0.7743750394742079  0.632069024715932  1.0000
