data_image0
_chemical_formula_structural       Mn2H22C18N2O20
_chemical_formula_sum              "Mn2 H22 C18 N2 O20"
_cell_length_a       6.422792900627293
_cell_length_b       7.110857889255008
_cell_length_c       13.588846344927862
_cell_angle_alpha    104.61423735155492
_cell_angle_beta     102.91270008138537
_cell_angle_gamma    93.10857080818991

_space_group_name_H-M_alt    "P 1"
_space_group_IT_number       1

loop_
  _space_group_symop_operation_xyz
  'x, y, z'

loop_
  _atom_site_type_symbol
  _atom_site_label
  _atom_site_symmetry_multiplicity
  _atom_site_fract_x
  _atom_site_fract_y
  _atom_site_fract_z
  _atom_site_occupancy
  Mn  Mn1       1.0  0.09213587938113928  0.9205120033572315  0.05846249529803063  1.0000
  Mn  Mn2       1.0  0.5333222946085884  0.8617519400079628  0.9413569981627606  1.0000
  H   H1        1.0  0.028043593225511594  0.24085259462023606  0.2170317735562152  1.0000
  H   H2        1.0  0.30894079825674947  0.021812659595525495  0.782158594205882  1.0000
  H   H3        1.0  0.25524786362984747  0.2717896092974854  0.19526801034150765  1.0000
  H   H4        1.0  0.5581277450053577  0.07440009409141621  0.8043649477779058  1.0000
  H   H5        1.0  0.010388556322141106  0.5885016663622482  0.12324029387502837  1.0000
  H   H6        1.0  0.38600305941082513  0.4638960615359552  0.8769168207077701  1.0000
  H   H7        1.0  0.26082305759879176  0.5829185540742827  0.13191578890619135  1.0000
  H   H8        1.0  0.6275873591187421  0.4485028005648815  0.8685735131451157  1.0000
  H   H9        1.0  0.3365794735842583  0.24937906347383185  0.04590534130495881  1.0000
  H   H10       1.0  0.7901993274622897  0.20446629458308513  0.9539054659737903  1.0000
  H   H11       1.0  0.1801701436576053  0.17649397861798383  0.9288400000360543  1.0000
  H   H12       1.0  0.75258038732985  0.2499548684540756  0.07115170763623269  1.0000
  H   H13       1.0  0.6503008397281319  0.059022307190758704  0.6398461633526722  1.0000
  H   H14       1.0  0.510964027925908  0.4207694780805867  0.35958234584968113  1.0000
  H   H15       1.0  0.7525188504900981  0.2959574602983679  0.6410740373844848  1.0000
  H   H16       1.0  0.6131149376473176  0.6568953462391252  0.3594030587399289  1.0000
  H   H17       1.0  0.5631460523045818  0.14590204527853254  0.4887559195723342  1.0000
  H   H18       1.0  0.5731847933401184  0.6565515502380704  0.51150608569413  1.0000
  H   H19       1.0  0.43930056932632777  0.061654663126042  0.29740925666858703  1.0000
  H   H20       1.0  0.639875322871319  0.7613214685737264  0.7029890651516555  1.0000
  H   H21       1.0  0.033521242451676876  0.8249510578883985  0.26929421577965945  1.0000
  H   H22       1.0  0.26206784414568324  0.5523891957695072  0.730901558114674  1.0000
  C   C1        1.0  0.90743793698082  0.20451113988093542  0.7741032238253356  1.0000
  C   C2        1.0  0.6350049997027511  0.4320015666945097  0.22599870050699178  1.0000
  C   C3        1.0  0.7992657655661617  0.1586367263414274  0.6578691321358862  1.0000
  C   C4        1.0  0.6423370244862312  0.5023779652154587  0.3421020985435563  1.0000
  C   C5        1.0  0.8684079109552415  0.029544417347978004  0.49083433915108554  1.0000
  C   C6        1.0  0.8767407167910477  0.5387186331113867  0.5094367111812803  1.0000
  C   C7        1.0  0.6669044608092634  0.07362458997083371  0.441374273567135  1.0000
  C   C8        1.0  0.7239985992834336  0.6310607205680087  0.5588758535558471  1.0000
  C   C9        1.0  0.5977670531430873  0.0282716004410588  0.3329437153215907  1.0000
  C   C10       1.0  0.7627892051849584  0.6926075287008757  0.667345366268549  1.0000
  C   C11       1.0  0.7292115043134829  0.9409352278291934  0.2686779223778332  1.0000
  C   C12       1.0  0.9583202426664882  0.6688870796935903  0.7314978948550321  1.0000
  C   C13       1.0  0.9280794816787434  0.8947771541326334  0.31613271564729933  1.0000
  C   C14       1.0  0.1099712655500085  0.5756698457423042  0.6840804599014948  1.0000
  C   C15       1.0  0.9967305729901311  0.9338567774769759  0.42481849782163306  1.0000
  C   C16       1.0  0.07047437591303658  0.5079533898951283  0.5753489576996886  1.0000
  C   C17       1.0  0.6599840002265295  0.8969020073899331  0.1525170803372618  1.0000
  C   C18       1.0  0.00584486476995488  0.7417381618229372  0.8475704616237824  1.0000
  N   N1        1.0  0.20020586632821144  0.8660653547958789  0.4648426309997762  1.0000
  N   N2        1.0  0.23425167178230316  0.40147527545885  0.5347467297459405  1.0000
  O   O1        1.0  0.7903790552898898  0.8319105071280576  0.09685694483243176  1.0000
  O   O2        1.0  0.1919536131572457  0.7320080460347355  0.9031433751572636  1.0000
  O   O3        1.0  0.47233698711091426  0.9260702148958305  0.10790611141825224  1.0000
  O   O4        1.0  0.8634729135120551  0.8172302260470161  0.8921975005817447  1.0000
  O   O5        1.0  0.7786931031139089  0.2527628942228404  0.8335594796126815  1.0000
  O   O6        1.0  0.4468049385905317  0.4202616677035352  0.16625328504251513  1.0000
  O   O7        1.0  0.1056708306434402  0.19604201553023165  0.8058240577249409  1.0000
  O   O8        1.0  0.8018803542928482  0.3924708446576162  0.19456920994056057  1.0000
  O   O9        1.0  0.9413725448121683  0.07346543288453232  0.5956765737475181  1.0000
  O   O10       1.0  0.8464619872347188  0.4795821679418638  0.4046366098191784  1.0000
  O   O11       1.0  0.28063004297137445  0.9107550106664705  0.5610890091821974  1.0000
  O   O12       1.0  0.22288786771672153  0.3577941124823596  0.4389261576562122  1.0000
  O   O13       1.0  0.2848366040319021  0.7622261560049354  0.39957329458860624  1.0000
  O   O14       1.0  0.38011972026193763  0.35615369503802435  0.5991712092669774  1.0000
  O   O15       1.0  0.1488464270044503  0.16964858146566536  0.2001015067765622  1.0000
  O   O16       1.0  0.4465723254114167  0.9675588705110697  0.7994536070609259  1.0000
  O   O17       1.0  0.1347934732504541  0.6474076916511892  0.10705190751620115  1.0000
  O   O18       1.0  0.5269759413111218  0.5388544832986072  0.893325457865679  1.0000
  O   O19       1.0  0.2438455013247705  0.1360179003840187  0.9933528562037073  1.0000
  O   O20       1.0  0.7499875765841466  0.1443051434742912  0.006353273968763089  1.0000
