data_image0
_chemical_formula_structural       Cu2H36C48Br2N12O6
_chemical_formula_sum              "Cu2 H36 C48 Br2 N12 O6"
_cell_length_a       8.770800073456785
_cell_length_b       11.554413722715688
_cell_length_c       12.591
_cell_angle_alpha    97.8532481448608
_cell_angle_beta     103.50372449325255
_cell_angle_gamma    93.16426857690206

_space_group_name_H-M_alt    "P 1"
_space_group_IT_number       1

loop_
  _space_group_symop_operation_xyz
  'x, y, z'

loop_
  _atom_site_type_symbol
  _atom_site_label
  _atom_site_symmetry_multiplicity
  _atom_site_fract_x
  _atom_site_fract_y
  _atom_site_fract_z
  _atom_site_occupancy
  Cu  Cu1       1.0  0.0767754385352646  0.0090006691815958  0.7527972598516399  1.0000
  Cu  Cu2       1.0  0.9232441937058907  0.9910087672217358  0.24720147779346754  1.0000
  H   H1        1.0  0.657036038048261  0.4180152891197011  0.825943906814814  1.0000
  H   H2        1.0  0.34294735539606347  0.5819660750210787  0.17405891801461595  1.0000
  H   H3        1.0  0.5465080227864263  0.852069489998371  0.14698562410434593  1.0000
  H   H4        1.0  0.4534967934124339  0.1479338055975248  0.8530107277960894  1.0000
  H   H5        1.0  0.8190980921656887  0.7599758009131251  0.3650435149701964  1.0000
  H   H6        1.0  0.1809206883147212  0.2400266174245687  0.6349549983686771  1.0000
  H   H7        1.0  0.638452815822177  0.5793167552424805  0.8944726586122513  1.0000
  H   H8        1.0  0.3615392100493792  0.420677767771366  0.10553004345490541  1.0000
  H   H9        1.0  0.8777375674318151  0.4263001156061464  0.17669039228457714  1.0000
  H   H10       1.0  0.1222417745825268  0.5736865120838601  0.8233100508658213  1.0000
  H   H11       1.0  0.6308351389657219  0.732075480966593  0.22252020903277983  1.0000
  H   H12       1.0  0.36917713848933437  0.2679313236621256  0.7774841502515528  1.0000
  H   H13       1.0  0.2968020817687176  0.8623255156710812  0.8636427379634455  1.0000
  H   H14       1.0  0.7032089166536082  0.13768041169942793  0.13635574374919912  1.0000
  H   H15       1.0  0.0746123056703141  0.14552660908346132  0.9791891573392065  1.0000
  H   H16       1.0  0.925376949195588  0.8544644048975698  0.020811065570605095  1.0000
  H   H17       1.0  0.2308811137823028  0.1484847237501654  0.17255168261771564  1.0000
  H   H18       1.0  0.7691047298657877  0.8515071674890748  0.8274496838553277  1.0000
  H   H19       1.0  0.4211491046814473  0.9971802786927455  0.21254528879622822  1.0000
  H   H20       1.0  0.5788520873594152  0.0028221396449482003  0.7874567173449095  1.0000
  H   H21       1.0  0.9853940204631826  0.8767388679764991  0.5224419317499313  1.0000
  H   H22       1.0  0.014635206610854799  0.1232626731029853  0.4775581708388899  1.0000
  H   H23       1.0  0.007065645505093703  0.7828152182759709  0.8319499591946524  1.0000
  H   H24       1.0  0.9929388485002804  0.2172047452258141  0.16805319555060552  1.0000
  H   H25       1.0  0.8599964191793603  0.5893517118475771  0.7492186387147939  1.0000
  H   H26       1.0  0.1400010394501976  0.4106682516542152  0.25078813696202223  1.0000
  H   H27       1.0  0.7751690667241106  0.5362284639956627  0.5416942413849455  1.0000
  H   H28       1.0  0.2248344690504211  0.46378360418228237  0.45831173861090957  1.0000
  H   H29       1.0  0.5512415910016487  0.3033260604525481  0.6561560498557456  1.0000
  H   H30       1.0  0.4487479846661344  0.696657935462838  0.343840962604972  1.0000
  H   H31       1.0  0.5776439478212723  0.13125624986543022  0.5185306010507915  1.0000
  H   H32       1.0  0.42236023094861963  0.8687321323409807  0.48146298299686674  1.0000
  H   H33       1.0  0.8043032859761752  0.013016757243320902  0.5634778180047563  1.0000
  H   H34       1.0  0.19571975887440374  0.9869821520615505  0.43651618368139833  1.0000
  H   H35       1.0  0.9978318775645364  0.2369421775763669  0.8586339050434618  1.0000
  H   H36       1.0  0.0021562033471269944  0.7630584862449155  0.14136416000592794  1.0000
  C   C1        1.0  0.6233979536146705  0.6621790562382586  0.05220245032804632  1.0000
  C   C2        1.0  0.3765988689775241  0.3378163440337971  0.9477979651002714  1.0000
  C   C3        1.0  0.675656972850362  0.5761954705496849  0.9829817921027911  1.0000
  C   C4        1.0  0.32434358036992705  0.4238016842387822  0.017017861708922076  1.0000
  C   C5        1.0  0.7695701524479689  0.49211553516559553  0.027428474552131467  1.0000
  C   C6        1.0  0.23041313313466105  0.5078746015572264  0.9725706673946493  1.0000
  C   C7        1.0  0.810416710123242  0.49420516420951094  0.1419694231983897  1.0000
  C   C8        1.0  0.18957019961739258  0.5057858497715202  0.8580312124705146  1.0000
  C   C9        1.0  0.7630056236427762  0.5814879692994452  0.21212249249848014  1.0000
  C   C10       1.0  0.23698906676433043  0.41850918548902183  0.7878793845381085  1.0000
  C   C11       1.0  0.669009043171421  0.6651222575154777  0.16691857264932258  1.0000
  C   C12       1.0  0.3309921488694343  0.3348801608222161  0.833081845055631  1.0000
  C   C13       1.0  0.5115818078709751  0.7422858892126528  0.9973309534468343  1.0000
  C   C14       1.0  0.4884191712296939  0.2577147746086297  0.0026668269727637152  1.0000
  C   C15       1.0  0.3700299860539431  0.9164111157736985  0.04124758835657625  1.0000
  C   C16       1.0  0.6299701398943751  0.0835921798221975  0.9587535601525163  1.0000
  C   C17       1.0  0.28208700694971617  0.9225685911134249  0.933949430351035  1.0000
  C   C18       1.0  0.7179250575651466  0.07743645899888212  0.06605070321174372  1.0000
  C   C19       1.0  0.1600041911059478  0.0818780172899523  0.9984713515349384  1.0000
  C   C20       1.0  0.8399904993011661  0.9181191374985076  0.001528142847377057  1.0000
  C   C21       1.0  0.24569628498780105  0.0823131373595487  0.10647462684266171  1.0000
  C   C22       1.0  0.7542899845406622  0.9176822629125  0.8935264546744507  1.0000
  C   C23       1.0  0.3511571109756204  0.9988277696014194  0.12890327361981957  1.0000
  C   C24       1.0  0.6488381117819628  0.0011737714780651  0.871098445776376  1.0000
  C   C25       1.0  0.8086677122481658  0.5774604768810506  0.3341310818474099  1.0000
  C   C26       1.0  0.1913383829834245  0.4225436959730473  0.6658735302789864  1.0000
  C   C27       1.0  0.8726349024698976  0.7034373868697941  0.5165855930302004  1.0000
  C   C28       1.0  0.127385369983422  0.2965676632425129  0.4834150814209793  1.0000
  C   C29       1.0  0.9536316732695411  0.8114866481845554  0.5704215862644801  1.0000
  C   C30       1.0  0.0463827363706031  0.18851840192775174  0.42957892875730164  1.0000
  C   C31       1.0  0.9647245783785862  0.759493308900467  0.7425917326847371  1.0000
  C   C32       1.0  0.035278104243587884  0.2405213910520914  0.2574104674377793  1.0000
  C   C33       1.0  0.8837849151973884  0.6509001474987103  0.6954850124476482  1.0000
  C   C34       1.0  0.11621435620696731  0.3491154297120573  0.30451991967428443  1.0000
  C   C35       1.0  0.8359727372253687  0.6211742532279204  0.5810578914236901  1.0000
  C   C36       1.0  0.16403634195206254  0.37883518317541137  0.41894468918258104  1.0000
  C   C37       1.0  0.8293102658788598  0.39625928563982177  0.9598602045053966  1.0000
  C   C38       1.0  0.1706781358346916  0.6037343601158227  0.04013703274916483  1.0000
  C   C39       1.0  0.7713236219664807  0.2810200160782443  0.7702816023872074  1.0000
  C   C40       1.0  0.22866573936951803  0.718971875160996  0.22971715940195744  1.0000
  C   C41       1.0  0.6530590374704275  0.2523556042352979  0.6719330512272493  1.0000
  C   C42       1.0  0.346930751137549  0.7476301461964994  0.32806739273691937  1.0000
  C   C43       1.0  0.6662251954044578  0.1563660114623886  0.5961123285166181  1.0000
  C   C44       1.0  0.3337821802514682  0.8436293888096671  0.40387868442390135  1.0000
  C   C45       1.0  0.7938945204478357  0.0901242444153922  0.6207096387089309  1.0000
  C   C46       1.0  0.2061191439016454  0.909874664889479  0.3792860140136085  1.0000
  C   C47       1.0  0.9009432874737227  0.21369922143929906  0.7861497323293849  1.0000
  C   C48       1.0  0.09904575306039481  0.7862996878655722  0.21385223990888144  1.0000
  Br  Br1       1.0  0.2965664302080667  0.0563892801485082  0.665697692174227  1.0000
  Br  Br2       1.0  0.7034372134281598  0.9436140154473878  0.33429529212434533  1.0000
  N   N1        1.0  0.9101675438290826  0.11816580293290001  0.7140258523567554  1.0000
  N   N2        1.0  0.08983983043523842  0.8818392471794072  0.2859727240699428  1.0000
  N   N3        1.0  0.7542433691885861  0.3746129394355506  0.8489178253776544  1.0000
  N   N4        1.0  0.2457356534154727  0.6253710564798425  0.15108223582613084  1.0000
  N   N5        1.0  0.4786907190864085  0.834410282335071  0.06706796760519754  1.0000
  N   N6        1.0  0.5213130310199077  0.16559389051903392  0.9329314977536498  1.0000
  N   N7        1.0  0.1790097453798367  0.0041292543701559  0.9133254888959429  1.0000
  N   N8        1.0  0.8209973094742009  0.9958731639675379  0.08667588245650394  1.0000
  N   N9        1.0  0.8300206830263193  0.6848798668047423  0.40074697240049073  1.0000
  N   N10       1.0  0.1699922346409011  0.3151225515329514  0.599254558381361  1.0000
  N   N11       1.0  0.9968150172156242  0.8403563384474282  0.6810085159042316  1.0000
  N   N12       1.0  0.0031941684318966003  0.1596539752141055  0.3189902209271196  1.0000
  O   O1        1.0  0.9370108445174451  0.3396594635221533  0.0021888393729198926  1.0000
  O   O2        1.0  0.06297052182028301  0.6603341822334912  0.9978104303770295  1.0000
  O   O3        1.0  0.45144654371663506  0.7220712283986686  0.8966896711906571  1.0000
  O   O4        1.0  0.5485401516922082  0.2779276809062027  0.10331191958862013  1.0000
  O   O5        1.0  0.8261487385754763  0.4833341805352092  0.36954050601771377  1.0000
  O   O6        1.0  0.1738478696849342  0.5166691150606866  0.6304648356114342  1.0000
