data_image0
_chemical_formula_structural       Na4P4H68C32N4O24
_chemical_formula_sum              "Na4 P4 H68 C32 N4 O24"
_cell_length_a       5.122551445
_cell_length_b       13.914289761549506
_cell_length_c       17.332
_cell_angle_alpha    100.44137545276203
_cell_angle_beta     90.0
_cell_angle_gamma    90.0

_space_group_name_H-M_alt    "P 1"
_space_group_IT_number       1

loop_
  _space_group_symop_operation_xyz
  'x, y, z'

loop_
  _atom_site_type_symbol
  _atom_site_label
  _atom_site_symmetry_multiplicity
  _atom_site_fract_x
  _atom_site_fract_y
  _atom_site_fract_z
  _atom_site_occupancy
  Na  Na1       1.0  0.9551197391635001  0.6324214592712141  0.0021926656226725237  1.0000
  Na  Na2       1.0  0.45512280843477265  0.867578429466491  0.9978088760016278  1.0000
  Na  Na3       1.0  0.0448702179895832  0.3675770049802622  0.9978081494786863  1.0000
  Na  Na4       1.0  0.5448749573270533  0.1324214963586456  0.002190997812988393  1.0000
  P   P1        1.0  0.6694691184306905  0.6695768539609761  0.1989578364841122  1.0000
  P   P2        1.0  0.1694507140279171  0.8304230347767289  0.8010437051401879  1.0000
  P   P3        1.0  0.3305286473311355  0.33043111051927104  0.8010449377978333  1.0000
  P   P4        1.0  0.8305275302120448  0.16957104475378063  0.19895704898411276  1.0000
  H   H1        1.0  0.0857658541289652  0.6692962318190683  0.2528755817713488  1.0000
  H   H2        1.0  0.5857510719445784  0.8307014645581534  0.7471227560433887  1.0000
  H   H3        1.0  0.9142377680894141  0.330701501645585  0.7471233961035464  1.0000
  H   H4        1.0  0.4142310765997621  0.1692999228406435  0.2528784843543121  1.0000
  H   H5        1.0  0.2401615705003408  0.5391058276459263  0.8697110146115037  1.0000
  H   H6        1.0  0.7401643576856287  0.9608940610917787  0.13028995004533783  1.0000
  H   H7        1.0  0.7598322909571067  0.46089336739238024  0.13028990681394254  1.0000
  H   H8        1.0  0.2598275516196367  0.03910367237287461  0.8697090278295574  1.0000
  H   H9        1.0  0.1676078823645639  0.6493903294145227  0.8562170151798582  1.0000
  H   H10       1.0  0.6676204303107767  0.850608828536352  0.14378268921797147  1.0000
  H   H11       1.0  0.832378170484141  0.35060740405013047  0.1437825396624959  1.0000
  H   H12       1.0  0.3323812397554136  0.1493889049283013  0.8562174425918414  1.0000
  H   H13       1.0  0.23181611990624162  0.7096130103262226  0.3841804475336588  1.0000
  H   H14       1.0  0.7317876726565515  0.7903824936905155  0.615815840406448  1.0000
  H   H15       1.0  0.7682011673774412  0.2903861847120837  0.6158181660219453  1.0000
  H   H16       1.0  0.2681866672790463  0.20962400921607133  0.3841849903249468  1.0000
  H   H17       1.0  0.20170417244096936  0.8194868098975479  0.5121025767256454  1.0000
  H   H18       1.0  0.7016601079737939  0.6805086941191902  0.4878971730192205  1.0000
  H   H19       1.0  0.7983326363645702  0.18051384671441187  0.4878979803805166  1.0000
  H   H20       1.0  0.2983318013314715  0.3194992703610566  0.512105601262725  1.0000
  H   H21       1.0  0.8377270674731108  0.9413199359070887  0.5390823778755092  1.0000
  H   H22       1.0  0.3376871893962985  0.5586762988964793  0.4609163242585196  1.0000
  H   H23       1.0  0.1622999805714969  0.0586821822785311  0.4609143531066095  1.0000
  H   H24       1.0  0.6623125285177096  0.4413243577154873  0.5390784631730481  1.0000
  H   H25       1.0  0.49991884464129305  0.9460393572415173  0.4362524021630562  1.0000
  H   H26       1.0  0.9998845409350493  0.5539561467752208  0.5637502324191033  1.0000
  H   H27       1.0  0.5001082034033146  0.0539583762231359  0.5637448448094629  1.0000
  H   H28       1.0  0.00011322482677660001  0.4460445098367458  0.4362468628823065  1.0000
  H   H29       1.0  0.5313933943322269  0.8355823897815428  0.3076805752076837  1.0000
  H   H30       1.0  0.0313749899294535  0.6644153065956786  0.6923229553141894  1.0000
  H   H31       1.0  0.46861998864708443  0.1644146128962802  0.6923188733105832  1.0000
  H   H32       1.0  0.968618871527994  0.33558315765580465  0.30767324404749263  1.0000
  H   H33       1.0  0.569868361761273  0.5802710496602472  0.35014116893405856  1.0000
  H   H34       1.0  0.0698558138150602  0.9197281082906272  0.6498608433336058  1.0000
  H   H35       1.0  0.43012940400054595  0.4197376456068227  0.6498645965092605  1.0000
  H   H36       1.0  0.9301360954902052  0.080271086747679  0.350138347189457  1.0000
  H   H37       1.0  0.6997548074404918  0.5078537289517655  0.2637129918945078  1.0000
  H   H38       1.0  0.19975006810302182  0.9921446982122859  0.736287760114159  1.0000
  H   H39       1.0  0.300252719082259  0.4921498508075146  0.7362954910849666  1.0000
  H   H40       1.0  0.8002496498109863  0.0078530352523671  0.2637123716956538  1.0000
  H   H41       1.0  0.3476939215004791  0.4187086977531749  0.3234057530309755  1.0000
  H   H42       1.0  0.8476986608379491  0.0812919959462235  0.6765948671678784  1.0000
  H   H43       1.0  0.6523018921091577  0.5812978051534188  0.6766031552448482  1.0000
  H   H44       1.0  0.1523049613804304  0.9187086606657431  0.3234033820684417  1.0000
  H   H45       1.0  0.2647098842362112  0.4346866209578765  0.2270326384124033  1.0000
  H   H46       1.0  0.7647068149649385  0.0653162651020054  0.7729665698563294  1.0000
  H   H47       1.0  0.7352995944387217  0.5653154972277434  0.7729733240490545  1.0000
  H   H48       1.0  0.23529290294906957  0.9346865838704447  0.2270319983522526  1.0000
  H   H49       1.0  0.1198660485097349  0.5109040331713217  0.3100707050865097  1.0000
  H   H50       1.0  0.6198649313906515  0.9891009710741799  0.689928695969094  1.0000
  H   H51       1.0  0.8801336694042732  0.4891024697352648  0.6899324335147199  1.0000
  H   H52       1.0  0.3801347865233566  0.0109018778982701  0.31006987223948806  1.0000
  H   H53       1.0  0.8679210053301887  0.4515137184565746  0.8935548240555135  1.0000
  H   H54       1.0  0.3679240746014614  0.0484847828823334  0.10644490020361987  1.0000
  H   H55       1.0  0.1320748082794481  0.5484832842212484  0.10644577839767069  1.0000
  H   H56       1.0  0.6320717390081754  0.9515151429428031  0.8935538196760716  1.0000
  H   H57       1.0  0.5751723592499687  0.4601114254865522  0.9211719858757232  1.0000
  H   H58       1.0  0.0751754285212485  0.03988415270504932  0.0788278900545194  1.0000
  H   H59       1.0  0.42482540651185025  0.5398833848307873  0.07882829760519879  1.0000
  H   H60       1.0  0.9248203850883954  0.9601121191859505  0.9211708751722014  1.0000
  H   H61       1.0  0.5286701420330999  0.6756884242025125  0.9146866278655779  1.0000
  H   H62       1.0  0.0286751634565547  0.8243136568956757  0.08531580969844296  1.0000
  H   H63       1.0  0.4713217672721655  0.3243129631962844  0.0853151894995889  1.0000
  H   H64       1.0  0.9713245544574535  0.1756862689294607  0.9146834871487142  1.0000
  H   H65       1.0  0.7781141961767091  0.7337041288940186  0.8909477013813286  1.0000
  H   H66       1.0  0.2781211697523531  0.766295029056856  0.10905373391887711  1.0000
  H   H67       1.0  0.2218757609763742  0.2662943353574576  0.1090525367525714  1.0000
  H   H68       1.0  0.721878548161655  0.2337041659814503  0.8909466105391031  1.0000
  C   C1        1.0  0.8833683855760697  0.7649642662432898  0.33686323338171315  1.0000
  C   C2        1.0  0.3833480290211142  0.7350297761997882  0.6631357267475124  1.0000
  C   C3        1.0  0.1166352366423169  0.23503200564770313  0.6631349548775489  1.0000
  C   C4        1.0  0.6166321673710371  0.2649635725438984  0.33686319015031774  1.0000
  C   C5        1.0  0.0704863589710598  0.761151020575433  0.39560338006361917  1.0000
  C   C6        1.0  0.5704637681779303  0.7388430218676519  0.6043944261306962  1.0000
  C   C7        1.0  0.9295406890735478  0.2388430589550836  0.6043956431583055  1.0000
  C   C8        1.0  0.429537901888267  0.2611634810389347  0.39560755853561597  1.0000
  C   C9        1.0  0.0534831134331313  0.8241068442233868  0.467764949153448  1.0000
  C   C10       1.0  0.5534605226400018  0.6758893905801744  0.5322308681432872  1.0000
  C   C11       1.0  0.9465224609374304  0.1758945431754029  0.5322305215696659  1.0000
  C   C12       1.0  0.4465294345130816  0.32410688131081866  0.46776270437630524  1.0000
  C   C13       1.0  0.8494809757835426  0.8914488504122673  0.48300755563177217  1.0000
  C   C14       1.0  0.3494489063154731  0.6085459228176404  0.5169943956588341  1.0000
  C   C15       1.0  0.150546072261065  0.1085496138392159  0.5169932594695865  1.0000
  C   C16       1.0  0.6505644766638383  0.39146131087576924  0.48300769533155824  1.0000
  C   C17       1.0  0.6616976005791955  0.8945335016127347  0.4252114846111112  1.0000
  C   C18       1.0  0.16167724402424  0.6054634639776566  0.574790785651757  1.0000
  C   C19       1.0  0.3383118780957375  0.105467154999225  0.574786764625209  1.0000
  C   C20       1.0  0.8383166174332075  0.3945298847660297  0.425204669441321  1.0000
  C   C21       1.0  0.6766296126480356  0.8320453815346198  0.3528398646213589  1.0000
  C   C22       1.0  0.176607303940898  0.6679508532689483  0.6471634532523396  1.0000
  C   C23       1.0  0.3233993875487542  0.16795162114321022  0.6471636226691188  1.0000
  C   C24       1.0  0.8233963182774815  0.3320512649166716  0.3528407783067493  1.0000
  C   C25       1.0  0.5222709871681914  0.5445889212154925  0.2897829391687523  1.0000
  C   C26       1.0  0.0222603913741679  0.9554109675222122  0.7102162945857059  1.0000
  C   C27       1.0  0.4777306828980059  0.4554168509042711  0.710221824010766  1.0000
  C   C28       1.0  0.9777315179310976  0.0445860351556107  0.28978257696510207  1.0000
  C   C29       1.0  0.2997471116661501  0.47326120366737  0.28720761398231787  1.0000
  C   C30       1.0  0.7997459945470596  0.026741682392504608  0.7127921712538736  1.0000
  C   C31       1.0  0.7002545584000472  0.5267438376655633  0.7127987737754893  1.0000
  C   C32       1.0  0.20025567551913784  0.9732604357931154  0.2872057136631625  1.0000
  N   N1        1.0  0.908455493315209  0.703090737887422  0.263652114339628  1.0000
  N   N2        1.0  0.4084409932168072  0.796909150850283  0.7363482733497477  1.0000
  N   N3        1.0  0.0915617939684736  0.2969048032167478  0.7363500063677575  1.0000
  N   N4        1.0  0.591548963936269  0.203092967335337  0.2636548042744166  1.0000
  O   O1        1.0  0.7828657345968324  0.591487165894506  0.13482115009915668  1.0000
  O   O2        1.0  0.2828648995637337  0.9085112612695454  0.8651767170722168  1.0000
  O   O3        1.0  0.21713007901280426  0.4085069136360033  0.8651761422203917  1.0000
  O   O4        1.0  0.7171152968284176  0.0914857414082846  0.1348244623484263  1.0000
  O   O5        1.0  0.5299409931060239  0.755198761862367  0.1756137839496645  1.0000
  O   O6        1.0  0.0299284451598112  0.7448011268753376  0.8243866037397183  1.0000
  O   O7        1.0  0.4700743420254696  0.24479604845497255  0.8243876534661823  1.0000
  O   O8        1.0  0.9700576076888936  0.2551980681629757  0.17560912497859954  1.0000
  O   O9        1.0  0.4467031760576107  0.6207193697964186  0.2465586417603021  1.0000
  O   O10       1.0  0.9466903460254059  0.8792819805149392  0.7534413816097967  1.0000
  O   O11       1.0  0.5533023983129581  0.379282017602371  0.753442598637406  1.0000
  O   O12       1.0  0.0532976589754881  0.12071794531019721  0.24655618433498458  1.0000
  O   O13       1.0  0.2496919774712012  0.6094944841202266  0.8919391202242863  1.0000
  O   O14       1.0  0.7496986689608534  0.8905054046174785  0.10806126746509652  1.0000
  O   O15       1.0  0.750297979681882  0.3905061724917402  0.1080614368818757  1.0000
  O   O16       1.0  0.2503010489531547  0.10949379042082803  0.8919379230579734  1.0000
  O   O17       1.0  0.7541866668359063  0.4771504511653363  0.9383065887026162  1.0000
  O   O18       1.0  0.2541916882593682  0.022849511747232  0.0616933482046917  1.0000
  O   O19       1.0  0.24580524246935906  0.5228480130861471  0.061694226398742606  1.0000
  O   O20       1.0  0.7458060775024578  0.9771489525042443  0.9383051590268322  1.0000
  O   O21       1.0  0.6667888134796485  0.7238450837991266  0.9355933662141921  1.0000
  O   O22       1.0  0.1667957870552925  0.7761562665122312  0.06440665715589941  1.0000
  O   O23       1.0  0.3332011436734348  0.2761548420260098  0.0644065076004168  1.0000
  O   O24       1.0  0.8332019787065335  0.22384439009973534  0.9355921690478866  1.0000
