data_image0
_chemical_formula_structural       Al4H18C24N2O24
_chemical_formula_sum              "Al4 H18 C24 N2 O24"
_cell_length_a       6.6761852114966
_cell_length_b       13.383194679211732
_cell_length_c       17.04934607858866
_cell_angle_alpha    90.52777501658764
_cell_angle_beta     89.82042521938145
_cell_angle_gamma    90.3154395939681

_space_group_name_H-M_alt    "P 1"
_space_group_IT_number       1

loop_
  _space_group_symop_operation_xyz
  'x, y, z'

loop_
  _atom_site_type_symbol
  _atom_site_label
  _atom_site_symmetry_multiplicity
  _atom_site_fract_x
  _atom_site_fract_y
  _atom_site_fract_z
  _atom_site_occupancy
  Al  Al1       1.0  0.11069092380027712  0.5064922713047793  0.4971609955507572  1.0000
  Al  Al2       1.0  0.6080966856449168  0.5022962574696024  0.4982760743688741  1.0000
  Al  Al3       1.0  0.6155374143102392  0.0005947830531169999  0.003911222423973  1.0000
  Al  Al4       1.0  0.11726585228766603  0.9984523750792109  0.004793677745723799  1.0000
  H   H1        1.0  0.0329963236305346  0.20540119512901356  0.8118687124147568  1.0000
  H   H2        1.0  0.575471798511593  0.2948533112961514  0.6907519999859274  1.0000
  H   H3        1.0  0.7074613178071374  0.2838339165826582  0.3117921385692241  1.0000
  H   H4        1.0  0.16929299927814875  0.18805529961307604  0.19982463674769235  1.0000
  H   H5        1.0  0.0628167497782215  0.8093580213321517  0.8080122606817637  1.0000
  H   H6        1.0  0.5227129969255131  0.7914777511378405  0.8083437473589112  1.0000
  H   H7        1.0  0.06076647187625642  0.6965214383797118  0.6938699995113848  1.0000
  H   H8        1.0  0.521532236758155  0.7107877724357222  0.693809666516003  1.0000
  H   H9        1.0  0.0654853910764075  0.7954749174372612  0.18718400719733805  1.0000
  H   H10       1.0  0.5215680841122463  0.816312499609559  0.21043336200833804  1.0000
  H   H11       1.0  0.0645878256070986  0.7011035391534934  0.3117971565099821  1.0000
  H   H12       1.0  0.5225626138717203  0.6866857630845117  0.2913806161220477  1.0000
  H   H13       1.0  0.165302298459217  0.3143596082363374  0.30689162020851757  1.0000
  H   H14       1.0  0.7123644358343668  0.21757258741615002  0.19078366525874907  1.0000
  H   H15       1.0  0.35229315764375  0.375457828280318  0.5216525857774882  1.0000
  H   H16       1.0  0.8554814481316413  0.6272737478377338  0.5289669386782946  1.0000
  H   H17       1.0  0.363188835805424  0.12305024231177698  0.9713496568438057  1.0000
  H   H18       1.0  0.8629974652910237  0.8758177747070376  0.9734431147687843  1.0000
  C   C1        1.0  0.3592398977268516  0.6247103112850921  0.6059658426650569  1.0000
  C   C2        1.0  0.36586220254454827  0.6150600637457941  0.3875941218531194  1.0000
  C   C3        1.0  0.8627539195061189  0.3819680944957471  0.39390582676611513  1.0000
  C   C4        1.0  0.8584197758855511  0.39033062100731536  0.6090948154813914  1.0000
  C   C5        1.0  0.7240467910370539  0.2178196157877466  0.7853973634681848  1.0000
  C   C6        1.0  0.880495805630332  0.18430158283944564  0.8274432471746633  1.0000
  C   C7        1.0  0.7217396409319718  0.2820445464171755  0.7175311234382701  1.0000
  C   C8        1.0  0.8755939561447337  0.3285882335940542  0.6815970923661323  1.0000
  C   C9        1.0  0.021788751406198507  0.28443564254556714  0.286398855714907  1.0000
  C   C10       1.0  0.8562822952835631  0.3119418006297608  0.3267620691061451  1.0000
  C   C11       1.0  0.024450856892841006  0.217375120282945  0.21899630256354632  1.0000
  C   C12       1.0  0.8617342121404404  0.18953176285221926  0.17718222976837683  1.0000
  C   C13       1.0  0.20779427924158259  0.7839857312607917  0.7857753790043274  1.0000
  C   C14       1.0  0.3720527342306782  0.8137981161682644  0.8258324934448706  1.0000
  C   C15       1.0  0.20672931384603288  0.7207687054633497  0.7161229720231856  1.0000
  C   C16       1.0  0.3701132582730935  0.68976059032714  0.6760654882609031  1.0000
  C   C17       1.0  0.2091580876890262  0.7809220407385239  0.21540223555907545  1.0000
  C   C18       1.0  0.3736111290411301  0.8246684096388465  0.18439840763444684  1.0000
  C   C19       1.0  0.20895112190826381  0.7177232518856727  0.28422004896435726  1.0000
  C   C20       1.0  0.3733669917451863  0.6767030197770867  0.3164823922830847  1.0000
  C   C21       1.0  0.36912537923707583  0.887450293440871  0.11373715316621258  1.0000
  C   C22       1.0  0.36275011002395263  0.8790694206309695  0.8960617142913063  1.0000
  C   C23       1.0  0.8674882457509837  0.11703558656605399  0.895882387093401  1.0000
  C   C24       1.0  0.8709532228862287  0.11964493708557458  0.10982860186789616  1.0000
  N   N1        1.0  0.5156154480973997  0.18596486852315056  0.8064393884157324  1.0000
  N   N2        1.0  0.0844822795408575  0.3236874558100595  0.7090982345753003  1.0000
  O   O1        1.0  0.534761122798507  0.5848629553974192  0.412851481501768  1.0000
  O   O2        1.0  0.1875086263474941  0.5981570021902199  0.5801964679860843  1.0000
  O   O3        1.0  0.02564413486471301  0.41306953251450557  0.578302854539153  1.0000
  O   O4        1.0  0.19598785079879383  0.5969932484118489  0.4190837024925356  1.0000
  O   O5        1.0  0.03214254603139471  0.4155067734099661  0.416518143330947  1.0000
  O   O6        1.0  0.5284085984571193  0.6002152526367228  0.5759284314982265  1.0000
  O   O7        1.0  0.3574522665641737  0.4428720027220763  0.5015536046090643  1.0000
  O   O8        1.0  0.6936886465027217  0.4033590617498747  0.4251124876611455  1.0000
  O   O9        1.0  0.6843740717592086  0.41266500913341275  0.586106542321488  1.0000
  O   O10       1.0  0.8582835318700575  0.5640634560560613  0.500743504549561  1.0000
  O   O11       1.0  0.1914023387441119  0.9080198859298676  0.9202708309315637  1.0000
  O   O12       1.0  0.539443150496254  0.9189923400633122  0.09001391956109468  1.0000
  O   O13       1.0  0.7030077898358443  0.09907733790087288  0.07768079322252668  1.0000
  O   O14       1.0  0.5318325466033259  0.9006937922095021  0.9273184299939101  1.0000
  O   O15       1.0  0.6952234701322483  0.08675024639677532  0.9176224716040621  1.0000
  O   O16       1.0  0.20119504596609525  0.9050361828621974  0.08149829201044409  1.0000
  O   O17       1.0  0.36635646406729455  0.0610787671568431  0.0005171914239240998  1.0000
  O   O18       1.0  0.0349706593532844  0.0960672925283745  0.9269181309980606  1.0000
  O   O19       1.0  0.0407128106725665  0.0858427775001758  0.08848106921603008  1.0000
  O   O20       1.0  0.8650105793561169  0.938793683625136  0.001982797907793101  1.0000
  O   O21       1.0  0.42406879793371394  0.23970213391852008  0.8534836825749037  1.0000
  O   O22       1.0  0.44833161505723507  0.11248554999222901  0.7711818350307238  1.0000
  O   O23       1.0  0.19066663552435867  0.2564187229980419  0.6813814981770888  1.0000
  O   O24       1.0  0.13858731669455443  0.38901814996789613  0.756120799033347  1.0000
