data_image0
_chemical_formula_structural       Cd2H40C54N8O20
_chemical_formula_sum              "Cd2 H40 C54 N8 O20"
_cell_length_a       10.343315340042581
_cell_length_b       10.71412287505852
_cell_length_c       13.691778339863035
_cell_angle_alpha    70.33852853942604
_cell_angle_beta     83.58104710770483
_cell_angle_gamma    83.34462429381264

_space_group_name_H-M_alt    "P 1"
_space_group_IT_number       1

loop_
  _space_group_symop_operation_xyz
  'x, y, z'

loop_
  _atom_site_type_symbol
  _atom_site_label
  _atom_site_symmetry_multiplicity
  _atom_site_fract_x
  _atom_site_fract_y
  _atom_site_fract_z
  _atom_site_occupancy
  Cd  Cd1       1.0  0.5369029820377875  0.28901596295233384  0.655612342086897  1.0000
  Cd  Cd2       1.0  0.46310070013098675  0.7109811242581399  0.34438780140983033  1.0000
  H   H1        1.0  0.4251476174376307  0.39541468339638197  0.45839932044034976  1.0000
  H   H2        1.0  0.5748507450738813  0.6045873772614812  0.5416035790277006  1.0000
  H   H3        1.0  0.5722472010059505  0.4065349960280569  0.43146416794191816  1.0000
  H   H4        1.0  0.4277524157198727  0.5934640754537597  0.5685365009559789  1.0000
  H   H5        1.0  0.691353638264026  0.45355790356835257  0.9610137477019123  1.0000
  H   H6        1.0  0.3086463116623932  0.5464371894463865  0.038987945724422  1.0000
  H   H7        1.0  0.8040767491885743  0.6556332243952239  0.5637154987869337  1.0000
  H   H8        1.0  0.1959244201932862  0.3443708182740011  0.43628154425098836  1.0000
  H   H9        1.0  0.10496953599151479  0.16332435103237933  0.26341692724977855  1.0000
  H   H10       1.0  0.8950300728401218  0.8366747222004489  0.7365844721948207  1.0000
  H   H11       1.0  0.9019286336568372  0.9799124695128328  0.47556116247231006  1.0000
  H   H12       1.0  0.0980738337685594  0.0200875981186357  0.5244375588610666  1.0000
  H   H13       1.0  0.21152567363586885  0.6512151156880464  0.6032956711034813  1.0000
  H   H14       1.0  0.7884747650151382  0.3487859432035805  0.39670294765713265  1.0000
  H   H15       1.0  0.9594148835419247  0.782549500267379  0.07635285198563938  1.0000
  H   H16       1.0  0.0405847331839055  0.21744957121443778  0.9236478169122577  1.0000
  H   H17       1.0  0.03604547278199282  0.28269873242352617  0.6744332045211293  1.0000
  H   H18       1.0  0.9639492127464777  0.7173013217815195  0.32556613104961224  1.0000
  H   H19       1.0  0.3722728145211108  0.11716094746514469  0.8651662630699303  1.0000
  H   H20       1.0  0.627729720416056  0.8828381290515778  0.13483417548896182  1.0000
  H   H21       1.0  0.3483433861432276  0.0748652434443073  0.05804566967984209  1.0000
  H   H22       1.0  0.651659291711688  0.9251318490919117  0.9419574727833576  1.0000
  H   H23       1.0  0.4851844887013073  0.19339371238106645  0.13352653760573216  1.0000
  H   H24       1.0  0.5148163427678938  0.8066023786797558  0.8664755534555153  1.0000
  H   H25       1.0  0.6458812349956773  0.38863962378350436  0.8218318537429141  1.0000
  H   H26       1.0  0.3541193465730715  0.6113594511276261  0.17816946892200744  1.0000
  H   H27       1.0  0.7130122179834331  0.5911794126019884  0.05701079113273273  1.0000
  H   H28       1.0  0.2869863190225672  0.4088206570713309  0.9429918900528236  1.0000
  H   H29       1.0  0.10557677953672603  0.6005796344421269  0.1294898066197661  1.0000
  H   H30       1.0  0.8944227459947599  0.39942043340746375  0.8705113366927291  1.0000
  H   H31       1.0  0.9485046155121852  0.22431450844574394  0.18084473634428377  1.0000
  H   H32       1.0  0.05149579945626932  0.7756865556989182  0.8191560740564297  1.0000
  H   H33       1.0  0.3839610483283663  0.3004512989238393  0.3194913810480102  1.0000
  H   H34       1.0  0.6160398901235453  0.6995437922671782  0.6805087745052416  1.0000
  H   H35       1.0  0.5845869112342399  0.1596568676606012  0.38581642287399376  1.0000
  H   H36       1.0  0.4154129632862222  0.8403392182198954  0.6141842838735272  1.0000
  H   H37       1.0  0.6119886665948187  0.9213249122736614  0.3880985385326454  1.0000
  H   H38       1.0  0.3880129946937529  0.0786731644459664  0.6119007718446169  1.0000
  H   H39       1.0  0.24859882227708144  0.9548620201274786  0.2776605903289209  1.0000
  H   H40       1.0  0.7513999129059599  0.04513605330825499  0.7223396809340555  1.0000
  C   C1        1.0  0.7866062735656882  0.38760424047767117  0.6389914611271833  1.0000
  C   C2        1.0  0.21338951654132637  0.6124057650026842  0.361005890109844  1.0000
  C   C3        1.0  0.905896708761574  0.46125348167082336  0.6251091086649865  1.0000
  C   C4        1.0  0.09410353960657862  0.5387495717073775  0.37489118947151207  1.0000
  C   C5        1.0  0.8969226228385805  0.6003423502644551  0.5870347124717198  1.0000
  C   C6        1.0  0.10307755801779452  0.3996616942284916  0.4129638684392702  1.0000
  C   C7        1.0  0.00729104154083161  0.6680472189859896  0.5798762375081026  1.0000
  C   C8        1.0  0.9927094883045202  0.3319528435378557  0.42012190683792033  1.0000
  C   C9        1.0  0.0018103405408496204  0.8147275655548325  0.5438065901461897  1.0000
  C   C10       1.0  0.99818825172445  0.1852724918613973  0.4561909772124721  1.0000
  C   C11       1.0  0.12696889190865326  0.5971743893196901  0.6082659013763915  1.0000
  C   C12       1.0  0.8730325352678392  0.40282666774821513  0.3917311795111544  1.0000
  C   C13       1.0  0.1383549581105044  0.4586191556335848  0.6399420101128895  1.0000
  C   C14       1.0  0.8616465444719593  0.5413809085685627  0.3600560574534554  1.0000
  C   C15       1.0  0.2705355958598901  0.38480930468194424  0.6573485172606579  1.0000
  C   C16       1.0  0.7294648585794903  0.6151917507076659  0.3426486404065514  1.0000
  C   C17       1.0  0.027326167227563803  0.3909872103985279  0.6493884369597182  1.0000
  C   C18       1.0  0.9726720839429532  0.6090168272357914  0.35060883641721574  1.0000
  C   C19       1.0  0.42914126430452626  0.16666548389241595  0.9014222302071813  1.0000
  C   C20       1.0  0.5708614372329494  0.8333316033907606  0.09857872061591887  1.0000
  C   C21       1.0  0.4167281497317886  0.14393356917631184  0.008296695436897015  1.0000
  C   C22       1.0  0.5832745518056796  0.8560635181068716  0.9917042553862034  1.0000
  C   C23       1.0  0.49181981567890176  0.20959118909830474  0.050614509789951995  1.0000
  C   C24       1.0  0.5081810157903064  0.7904049019625106  0.9493875812713026  1.0000
  C   C25       1.0  0.5766800915689815  0.29967137116044995  0.9834056970759093  1.0000
  C   C26       1.0  0.4233206644942556  0.7003257127661298  0.016595407306532223  1.0000
  C   C27       1.0  0.5823606750320991  0.31820459551678937  0.8767735598286206  1.0000
  C   C28       1.0  0.4176410458740634  0.6817924918391041  0.12322819832085236  1.0000
  C   C29       1.0  0.7239748906041683  0.31507194720733617  0.10610667523673808  1.0000
  C   C30       1.0  0.2760237375961693  0.6849271260982022  0.8938955315342267  1.0000
  C   C31       1.0  0.823061302443861  0.39946372026187044  0.11780005896034852  1.0000
  C   C32       1.0  0.176939294913268  0.6005353511472293  0.8821998026111828  1.0000
  C   C33       1.0  0.8047583746262459  0.5382333219921305  0.08599004392379334  1.0000
  C   C34       1.0  0.1952421552190984  0.46176674053171496  0.9140081004222222  1.0000
  C   C35       1.0  0.906200677725792  0.6105384404449479  0.09187837069477216  1.0000
  C   C36       1.0  0.09379975303103551  0.38946262019769046  0.9081209786125439  1.0000
  C   C37       1.0  0.02529023530624389  0.5446456173535451  0.12652636662107847  1.0000
  C   C38       1.0  0.9747073526451969  0.45535444538843  0.8734741997040485  1.0000
  C   C39       1.0  0.04299702434173012  0.4056190893359357  0.1591733714132388  1.0000
  C   C40       1.0  0.9570016713703849  0.5943789928548567  0.8408305525832417  1.0000
  C   C41       1.0  0.9403283750976784  0.33260028993034035  0.15713630857950284  1.0000
  C   C42       1.0  0.05967122583977162  0.6673987850534928  0.8428658214117916  1.0000
  C   C43       1.0  0.17580150030586592  0.3449126800000144  0.19010676151309264  1.0000
  C   C44       1.0  0.8241981085257775  0.6550863932328141  0.8098946379315065  1.0000
  C   C45       1.0  0.30183877591738917  0.1404033038532617  0.2897469475435486  1.0000
  C   C46       1.0  0.6981648229512275  0.8595947779739744  0.7102529398210748  1.0000
  C   C47       1.0  0.39701468771274767  0.19700331205907415  0.32293567915068166  1.0000
  C   C48       1.0  0.6029878709069791  0.8029957592046129  0.6770625677681039  1.0000
  C   C49       1.0  0.5092695745933113  0.11809976966574003  0.3597366994144905  1.0000
  C   C50       1.0  0.49073112974652117  0.8818983018735549  0.6402612266490451  1.0000
  C   C51       1.0  0.524136265152201  0.9859766985202183  0.3629678179249538  1.0000
  C   C52       1.0  0.47586361726244053  0.014019385609259397  0.6370321582758719  1.0000
  C   C53       1.0  0.3213276487770783  0.005816905233416499  0.2986110674711142  1.0000
  C   C54       1.0  0.6786729485800437  0.9941821661756831  0.7013887941004098  1.0000
  N   N1        1.0  0.5114919410733877  0.25206460690198174  0.8374493818905007  1.0000
  N   N2        1.0  0.48851082797585843  0.747931489266456  0.16255328615811493  1.0000
  N   N3        1.0  0.6569451243080735  0.3707915880672558  0.01775516521931312  1.0000
  N   N4        1.0  0.3430514672236952  0.6292084782494598  0.9822476695255845  1.0000
  N   N5        1.0  0.1862224288642196  0.2135094634425272  0.2493519419566112  1.0000
  N   N6        1.0  0.8137772869501276  0.7864886099204895  0.7506475219799992  1.0000
  N   N7        1.0  0.4304547316089754  0.9312763992503572  0.33415160058046217  1.0000
  N   N8        1.0  0.5695470129797542  0.06872068285249358  0.6658479659289112  1.0000
  O   O1        1.0  0.5091768694126131  0.34210870014356937  0.47514912132734816  1.0000
  O   O2        1.0  0.4908197536958951  0.6578913591690991  0.5248507912307545  1.0000
  O   O3        1.0  0.678327611370129  0.4574875535476083  0.6118215561343374  1.0000
  O   O4        1.0  0.3216699418224422  0.5425244480249064  0.38817659037253793  1.0000
  O   O5        1.0  0.7946706079974035  0.26244554303070083  0.6780372330542617  1.0000
  O   O6        1.0  0.2053197104642663  0.7375604669087181  0.3219586812024176  1.0000
  O   O7        1.0  0.2846689272569662  0.2611857324275277  0.6735607464346314  1.0000
  O   O8        1.0  0.7153326191547152  0.7388133459129093  0.32644122999732156  1.0000
  O   O9        1.0  0.3663887476075374  0.4547399119631306  0.6514053245188975  1.0000
  O   O10       1.0  0.6336139022065268  0.5452581629327681  0.34859244798529687  1.0000
  O   O11       1.0  0.09276871702958536  0.872264324305732  0.55896232531461  1.0000
  O   O12       1.0  0.9072307883552425  0.1277367241525269  0.4410327174921774  1.0000
  O   O13       1.0  0.8963040228506288  0.8774716116179418  0.4978398070951967  1.0000
  O   O14       1.0  0.1036955184692303  0.12252845272962529  0.502159875123894  1.0000
  O   O15       1.0  0.710540891121063  0.20195827602876906  0.16785053298709576  1.0000
  O   O16       1.0  0.2894554347218871  0.7980447776402784  0.8321529944548871  1.0000
  O   O17       1.0  0.8853265170234508  0.7463453954704349  0.06031484983701318  1.0000
  O   O18       1.0  0.11467307601981955  0.2536536812644101  0.9396880107009833  1.0000
  O   O19       1.0  0.2725896696808475  0.41152451036883503  0.16319446666607015  1.0000
  O   O20       1.0  0.7274099707275283  0.588474555859939  0.8368040105917343  1.0000
