data_image0
_chemical_formula_structural       Zn2H26C33N2O8
_chemical_formula_sum              "Zn2 H26 C33 N2 O8"
_cell_length_a       9.646215444214706
_cell_length_b       11.023149761977454
_cell_length_c       13.660387269619358
_cell_angle_alpha    89.54071169987762
_cell_angle_beta     112.39731754204932
_cell_angle_gamma    90.84731130184197

_space_group_name_H-M_alt    "P 1"
_space_group_IT_number       1

loop_
  _space_group_symop_operation_xyz
  'x, y, z'

loop_
  _atom_site_type_symbol
  _atom_site_label
  _atom_site_symmetry_multiplicity
  _atom_site_fract_x
  _atom_site_fract_y
  _atom_site_fract_z
  _atom_site_occupancy
  Zn  Zn1       1.0  0.36694076405468923  0.4808208989431222  0.4887279788140475  1.0000
  Zn  Zn2       1.0  0.6742928169820814  0.4861664751136486  0.5376624086698029  1.0000
  H   H1        1.0  0.809846954526982  0.6401718208275682  0.8579554731548881  1.0000
  H   H2        1.0  0.24670277933938678  0.25779117904489374  0.1937630902070779  1.0000
  H   H3        1.0  0.3813114759029901  0.27642050460968887  0.9286387789984187  1.0000
  H   H4        1.0  0.24227448787829078  0.17417185129469462  0.022006744409146985  1.0000
  H   H5        1.0  0.5882966593861452  0.5947926766358621  0.2694290208668234  1.0000
  H   H6        1.0  0.7269619738673113  0.8634466397490497  0.5426748532758763  1.0000
  H   H7        1.0  0.06107581097470671  0.8737276497415818  0.22076034582736528  1.0000
  H   H8        1.0  0.1497923289114595  0.9974600183028386  0.1833123210599652  1.0000
  H   H9        1.0  0.10960131904958101  0.8615232102537715  0.10811200698517351  1.0000
  H   H10       1.0  0.3836872639908648  0.8724924329998912  0.2255347904812268  1.0000
  H   H11       1.0  0.2945821647924305  0.7486638790190767  0.261646464389635  1.0000
  H   H12       1.0  0.7439124480542675  0.08932931921523851  0.5181741541403041  1.0000
  H   H13       1.0  0.266600279263038  0.8760778832547446  0.40521364282559347  1.0000
  H   H14       1.0  0.3598315898935737  0.9978312819021652  0.36964415723620897  1.0000
  H   H15       1.0  0.23276576345450906  0.5469264472256086  0.8434402481767407  1.0000
  H   H16       1.0  0.9931215206704921  0.4369552725096781  0.7471863634033085  1.0000
  H   H17       1.0  0.9931884872735565  0.24547797570458127  0.6509871696147299  1.0000
  H   H18       1.0  0.2348810986612833  0.1713742990074252  0.6453884214953759  1.0000
  H   H19       1.0  0.47312757509555325  0.2790723264557826  0.7455035633002324  1.0000
  H   H20       1.0  0.4329130831664044  0.0786813352490867  0.5317635835465706  1.0000
  H   H21       1.0  0.0444076709847749  0.5717176094918556  0.3548809146004999  1.0000
  H   H22       1.0  0.1569959917663084  0.46669253074674083  0.5688705564634872  1.0000
  H   H23       1.0  0.8279855383717275  0.627934452776323  0.4120537572515203  1.0000
  H   H24       1.0  0.9468939731938516  0.418477939957917  0.5506482453128283  1.0000
  H   H25       1.0  0.7517051634200698  0.684616623944258  0.1851111114982942  1.0000
  H   H26       1.0  0.8423881018906839  0.6922102541652606  0.043543621132961514  1.0000
  C   C1        1.0  0.5526409415690381  0.250271073526001  0.5406746207289855  1.0000
  C   C2        1.0  0.40068733973625104  0.40123379859326047  0.19777236862588404  1.0000
  C   C3        1.0  0.6253288139555125  0.915446296108186  0.5012876050115835  1.0000
  C   C4        1.0  0.4196429469422256  0.4321683430227026  0.3088751870633217  1.0000
  C   C5        1.0  0.5008415306564657  0.8491180426563859  0.44582843514464787  1.0000
  C   C6        1.0  0.6393128003047366  0.04590640494351561  0.5146792751196543  1.0000
  C   C7        1.0  0.5368028971623673  0.11691627966011002  0.5300066243169396  1.0000
  C   C8        1.0  0.04302771917659949  0.5394688820983262  0.43061848092580846  1.0000
  C   C9        1.0  0.9052306909123828  0.5551407375275659  0.4522516681986275  1.0000
  C   C10       1.0  0.5114039230878973  0.7143374790974377  0.4636198777712934  1.0000
  C   C11       1.0  0.5839819318524916  0.5243453690281896  0.7141863240201046  1.0000
  C   C12       1.0  0.4667808695779101  0.42407378243202487  0.04072367752701917  1.0000
  C   C13       1.0  0.7537041493400878  0.6297468652113665  0.9961972826453546  1.0000
  C   C14       1.0  0.6098712096469824  0.532951815517947  0.829691282919292  1.0000
  C   C15       1.0  0.3091979376836491  0.3021809419938819  0.1515110073434514  1.0000
  C   C16       1.0  0.30563786280865196  0.2568903269853138  0.05511318783283056  1.0000
  C   C17       1.0  0.38358004058400746  0.31588910454723157  0.001697346235666006  1.0000
  C   C18       1.0  0.3526664305125564  0.8984316195361757  0.3728718939112595  1.0000
  C   C19       1.0  0.2999542934789616  0.8483064548635395  0.2594344934542079  1.0000
  C   C20       1.0  0.146950372545092  0.8978635022311394  0.18890171918531  1.0000
  C   C21       1.0  0.369589958321903  0.4192046156226113  0.8029082227804591  1.0000
  C   C22       1.0  0.2324481231558195  0.46452684667622185  0.7997195280708667  1.0000
  C   C23       1.0  0.482298875661712  0.4632725475766647  0.14428911553603285  1.0000
  C   C24       1.0  0.09785790184451319  0.402794125916472  0.7454006887150013  1.0000
  C   C25       1.0  0.09806514279697608  0.295588020545317  0.690855308281911  1.0000
  C   C26       1.0  0.23334005925202916  0.25312462634807525  0.6893243299812396  1.0000
  C   C27       1.0  0.3679497427382969  0.31419316075368187  0.74522081069842  1.0000
  C   C28       1.0  0.5439714240260685  0.49203289302000286  0.9834272981811336  1.0000
  C   C29       1.0  0.6583410590805058  0.5771175575284175  0.042086679185871306  1.0000
  C   C30       1.0  0.6712389820376004  0.6124779737997059  0.14573732169629483  1.0000
  C   C31       1.0  0.5817800722401927  0.562758927089412  0.19267318838715394  1.0000
  C   C32       1.0  0.511485271789297  0.480354030529611  0.8723334637773944  1.0000
  C   C33       1.0  0.7347659182199847  0.6029267898287712  0.8935693670376281  1.0000
  N   N1        1.0  0.16140992514988986  0.49134881496663496  0.49712322122564245  1.0000
  N   N2        1.0  0.8725352927984958  0.48727180028696176  0.516773373493315  1.0000
  O   O1        1.0  0.4328311546498966  0.3059460274122685  0.5319136496601757  1.0000
  O   O2        1.0  0.678973018426795  0.30057227138135545  0.5556594607807596  1.0000
  O   O3        1.0  0.30298340775258475  0.4336012560481278  0.33138084233990367  1.0000
  O   O4        1.0  0.5532505014971321  0.4503976731454812  0.37464744877555484  1.0000
  O   O5        1.0  0.3879972107733565  0.6580159165985222  0.4461835579068421  1.0000
  O   O6        1.0  0.641064375540175  0.6663259552366937  0.4987236901313351  1.0000
  O   O7        1.0  0.4508243826887934  0.5346857606690065  0.6471410187091919  1.0000
  O   O8        1.0  0.7000614579448055  0.5095894940037624  0.6920260762159741  1.0000
