data_image0
_chemical_formula_structural       K2H6C14N4O12
_chemical_formula_sum              "K2 H6 C14 N4 O12"
_cell_length_a       7.006373763700637
_cell_length_b       7.503454835210873
_cell_length_c       10.102673806724285
_cell_angle_alpha    110.35171315652012
_cell_angle_beta     108.84903117011594
_cell_angle_gamma    93.59617847210434

_space_group_name_H-M_alt    "P 1"
_space_group_IT_number       1

loop_
  _space_group_symop_operation_xyz
  'x, y, z'

loop_
  _atom_site_type_symbol
  _atom_site_label
  _atom_site_symmetry_multiplicity
  _atom_site_fract_x
  _atom_site_fract_y
  _atom_site_fract_z
  _atom_site_occupancy
  K   K1        1.0  0.7961449792519417  0.54539715210813  0.09239943696433524  1.0000
  K   K2        1.0  0.2038501481957979  0.454553483535463  0.9075874852906408  1.0000
  H   H1        1.0  0.7944041101025408  0.15400184918821946  0.5433764128678932  1.0000
  H   H2        1.0  0.2499795024261218  0.3891646743996588  0.5432135673199809  1.0000
  H   H3        1.0  0.20560056346662492  0.846006827657284  0.45661293703782496  1.0000
  H   H4        1.0  0.7500279640790097  0.6108439653236815  0.4567932420312674  1.0000
  H   H5        1.0  0.308554792313366  0.05797857795860039  0.1164696463497066  1.0000
  H   H6        1.0  0.6914389439792289  0.9420370242719044  0.8835318611146904  1.0000
  C   C1        1.0  0.6176562566179556  0.36742482824236333  0.7342672884566709  1.0000
  C   C2        1.0  0.38234755286521255  0.6325721952635562  0.2657336826731794  1.0000
  C   C3        1.0  0.5311558261384023  0.2806348969417273  0.5612764472779403  1.0000
  C   C4        1.0  0.46884329688872123  0.7193692569387264  0.4387243112918141  1.0000
  C   C5        1.0  0.6443813709117235  0.17514901125775845  0.48162303234686726  1.0000
  C   C6        1.0  0.33809358474043455  0.30619422454279993  0.4814234815696779  1.0000
  C   C7        1.0  0.3556305938544213  0.8248510833745825  0.5183776394109217  1.0000
  C   C8        1.0  0.6619208963808632  0.693811664554673  0.5185852130509688  1.0000
  C   C9        1.0  0.5606309167135777  0.09477418732613069  0.32320224390900176  1.0000
  C   C10       1.0  0.2631725551913604  0.22781854529835496  0.3230565973585158  1.0000
  C   C11       1.0  0.4393638213069124  0.9052226566776724  0.6767956082695079  1.0000
  C   C12       1.0  0.7368266839277313  0.7721783739130785  0.6769452772649274  1.0000
  C   C13       1.0  0.3702704617550978  0.11960743159153957  0.23989650164628537  1.0000
  C   C14       1.0  0.62972042287047  0.8803936162582602  0.760110467421768  1.0000
  N   N1        1.0  0.6747720723227957  0.9742888130313856  0.24057588073721084  1.0000
  N   N2        1.0  0.0663667129264027  0.2655666193288724  0.24026071096906784  1.0000
  N   N3        1.0  0.325223208324914  0.0257109302138119  0.7594228494959766  1.0000
  N   N4        1.0  0.9336396243353846  0.7344521059661915  0.7597484603190169  1.0000
  O   O1        1.0  0.800047462387532  0.35204152069953654  0.7989711849527127  1.0000
  O   O2        1.0  0.500086865041304  0.4476943707507103  0.7989934237785049  1.0000
  O   O3        1.0  0.19995643305179558  0.6479641580092449  0.20103403508931453  1.0000
  O   O4        1.0  0.4999060483166178  0.5522850737870685  0.20100542682543224  1.0000
  O   O5        1.0  0.5938025027549969  0.894945643149505  0.10007662537400816  1.0000
  O   O6        1.0  0.006997064765045003  0.2045588339705233  0.09972884715490692  1.0000
  O   O7        1.0  0.4061698234254862  0.1050362973043875  0.8999131985642564  1.0000
  O   O8        1.0  0.9930125999551367  0.7954614143531417  0.9002795040396521  1.0000
  O   O9        1.0  0.8457569804572103  0.9545488807610384  0.3159298944837587  1.0000
  O   O10       1.0  0.9705703854896583  0.36044289259242385  0.31545828563790923  1.0000
  O   O11       1.0  0.1542364926997095  0.045448037068887004  0.6840498686887883  1.0000
  O   O12       1.0  0.029435722017808516  0.6395744005340519  0.6845474910597177  1.0000
