data_image0
_chemical_formula_structural       CuH22C12S2N6O6
_chemical_formula_sum              "Cu1 H22 C12 S2 N6 O6"
_cell_length_a       6.579996159735354
_cell_length_b       6.7740491109110526
_cell_length_c       12.257818111207783
_cell_angle_alpha    105.75860787531836
_cell_angle_beta     92.82558929198157
_cell_angle_gamma    112.3211395620775

_space_group_name_H-M_alt    "P 1"
_space_group_IT_number       1

loop_
  _space_group_symop_operation_xyz
  'x, y, z'

loop_
  _atom_site_type_symbol
  _atom_site_label
  _atom_site_symmetry_multiplicity
  _atom_site_fract_x
  _atom_site_fract_y
  _atom_site_fract_z
  _atom_site_occupancy
  Cu  Cu1       1.0  5.0927011371244196e-06  0.5000050335497761  0.5000002090240727  1.0000
  H   H1        1.0  0.8743377581674493  0.5718046505642321  0.03154137146806588  1.0000
  H   H2        1.0  0.12565435505702988  0.4281938536669969  0.968456486252734  1.0000
  H   H3        1.0  0.9480373721032717  0.33146317904804334  0.14133700018734882  1.0000
  H   H4        1.0  0.05195253227361712  0.66852686193225  0.8586595615574738  1.0000
  H   H5        1.0  0.6233449667236711  0.05853486858213591  0.19577650971015004  1.0000
  H   H6        1.0  0.3766427208331321  0.9414638660690359  0.804222929475344  1.0000
  H   H7        1.0  0.20677777093169414  0.838394397466395  0.14875131202728653  1.0000
  H   H8        1.0  0.7932173020121593  0.16160395884119788  0.8512457643787031  1.0000
  H   H9        1.0  0.033063016513807476  0.9491081320339918  0.09140237998422412  1.0000
  H   H10       1.0  0.9669262888286383  0.05088718090885888  0.9085998468867019  1.0000
  H   H11       1.0  0.23197209724963835  0.8581079793573777  0.4416847096679177  1.0000
  H   H12       1.0  0.7680373167459179  0.14190186082186781  0.5583200533783953  1.0000
  H   H13       1.0  0.387744517376241  0.8320275186087686  0.5428738432154888  1.0000
  H   H14       1.0  0.6122649244420584  0.16798233863943324  0.4571317388157539  1.0000
  H   H15       1.0  0.19088636204516954  0.9221711260892673  0.5766461229016215  1.0000
  H   H16       1.0  0.8091200771318652  0.07783542038788482  0.42335809538521835  1.0000
  H   H17       1.0  0.28921379591770346  0.34130271117114563  0.5222816113322608  1.0000
  H   H18       1.0  0.7107917763454665  0.6586986458397349  0.4777177419783599  1.0000
  H   H19       1.0  0.17204712227512425  0.344555782170616  0.6387322097803292  1.0000
  H   H20       1.0  0.8279651957943128  0.6554538759470885  0.3612701339813  1.0000
  H   H21       1.0  0.3700766488876539  0.5786586368760496  0.6291325387228995  1.0000
  H   H22       1.0  0.6299370922081947  0.4213474800506702  0.3708668598296327  1.0000
  C   C1        1.0  0.5229164199612342  0.4295803019351326  0.03173081643042511  1.0000
  C   C2        1.0  0.477073458968455  0.5704165881587216  0.9682667594931119  1.0000
  C   C3        1.0  0.7410603111949567  0.4509701655643853  0.05847574335188452  1.0000
  C   C4        1.0  0.25893558574087183  0.5490299215147942  0.9415240529711042  1.0000
  C   C5        1.0  0.7801068018683137  0.3181932690624124  0.11840622154483782  1.0000
  C   C6        1.0  0.21987932117278305  0.6818020552524543  0.8815902347614469  1.0000
  C   C7        1.0  0.5995977851742538  0.167058976756465  0.14973681378119613  1.0000
  C   C8        1.0  0.4003958345448878  0.8329360374906473  0.8502605556853098  1.0000
  C   C9        1.0  0.38591306353392696  0.15440653031119922  0.1190793667758996  1.0000
  C   C10       1.0  0.6140760597728842  0.8455852385921999  0.8809166201111439  1.0000
  C   C11       1.0  0.18660585653567796  0.9922639119146198  0.14961990016468724  1.0000
  C   C12       1.0  0.8133877782826103  0.00773454395822169  0.8503787953761093  1.0000
  S   S1        1.0  0.14035844022188118  0.10193336251559511  0.29325569749993013  1.0000
  S   S2        1.0  0.8596456788165695  0.8980646524348044  0.706743948871207  1.0000
  N   N1        1.0  0.3475413131660332  0.2827327878196471  0.0613736726525573  1.0000
  N   N2        1.0  0.6524522485320644  0.7172553261070361  0.9386202256804451  1.0000
  N   N3        1.0  0.22936395560922296  0.8108282017306222  0.5144949781981438  1.0000
  N   N4        1.0  0.7706476648583731  0.18918323551704933  0.4855092476605023  1.0000
  N   N5        1.0  0.2335651087987855  0.43559601622343547  0.5840080106936371  1.0000
  N   N6        1.0  0.7664457004004387  0.5644102656958766  0.4159929881586493  1.0000
  O   O1        1.0  0.12526918777193427  0.3161709244773547  0.3036802668958529  1.0000
  O   O2        1.0  0.8747237748917128  0.6838224614118928  0.6963192965632459  1.0000
  O   O3        1.0  0.33631908659697984  0.13098024069012842  0.3720419744468871  1.0000
  O   O4        1.0  0.6636952686324661  0.8690240458997638  0.6279530850538323  1.0000
  O   O5        1.0  0.9332783382021717  0.925993848063243  0.3053656150865366  1.0000
  O   O6        1.0  0.06673115451051358  0.07400231095783029  0.6946379385872845  1.0000
