data_image0
_chemical_formula_structural       Cu2H18C20I2N2
_chemical_formula_sum              "Cu2 H18 C20 I2 N2"
_cell_length_a       4.346790669444172
_cell_length_b       9.834315697832237
_cell_length_c       11.092173694574928
_cell_angle_alpha    87.96204540357502
_cell_angle_beta     82.94522571186293
_cell_angle_gamma    79.9237019458894

_space_group_name_H-M_alt    "P 1"
_space_group_IT_number       1

loop_
  _space_group_symop_operation_xyz
  'x, y, z'

loop_
  _atom_site_type_symbol
  _atom_site_label
  _atom_site_symmetry_multiplicity
  _atom_site_fract_x
  _atom_site_fract_y
  _atom_site_fract_z
  _atom_site_occupancy
  Cu  Cu1       1.0  0.8782523285429422  0.39825806272108366  0.9686396621508708  1.0000
  Cu  Cu2       1.0  0.12176865317965019  0.6017482679685102  0.031365235466154204  1.0000
  H   H1        1.0  0.7415519108311417  0.12034313017388597  0.9553504479363187  1.0000
  H   H2        1.0  0.25846332425405194  0.8796662940863555  0.044657363709461606  1.0000
  H   H3        1.0  0.9837515607717225  0.8998657232557221  0.8502026872715905  1.0000
  H   H4        1.0  0.01624129229961111  0.1001416499882666  0.14980637997781093  1.0000
  H   H5        1.0  0.41284798061699507  0.9040208472037817  0.6778704645729976  1.0000
  H   H6        1.0  0.5871229470617011  0.09598243866498278  0.32212997986007263  1.0000
  H   H7        1.0  0.7294025117519709  0.04580486304098489  0.5367498340403857  1.0000
  H   H8        1.0  0.2705641127112415  0.9541912104543188  0.4632465569106829  1.0000
  H   H9        1.0  0.6490562967003229  0.4797540345504601  0.601704696895233  1.0000
  H   H10       1.0  0.3509589842421619  0.5202420106552808  0.3982882031776784  1.0000
  H   H11       1.0  0.24386425800667408  0.4639614317442309  0.7764994894723504  1.0000
  H   H12       1.0  0.7561604903130643  0.536040779314675  0.2235008283703551  1.0000
  H   H13       1.0  0.060827276903502515  0.17774399528261137  0.40891777494525894  1.0000
  H   H14       1.0  0.9391646917127687  0.8222406979160226  0.5910794259466103  1.0000
  H   H15       1.0  0.12344958526036724  0.3357816027321262  0.4665830513470939  1.0000
  H   H16       1.0  0.8765554285486845  0.6642051527260477  0.5334115873851247  1.0000
  H   H17       1.0  0.8281110716830683  0.3357351760988151  0.3704625109871601  1.0000
  H   H18       1.0  0.17189078946806555  0.6642536492668539  0.6295313292286908  1.0000
  C   C1        1.0  0.9301312580946473  0.11933693540586182  0.8805106210888599  1.0000
  C   C2        1.0  0.06987380128326484  0.8806683807429324  0.11949245100025511  1.0000
  C   C3        1.0  0.06621457116942517  0.9956025073070548  0.8205953063869348  1.0000
  C   C4        1.0  0.9337704293698438  0.004406944138914099  0.17941140904223835  1.0000
  C   C5        1.0  0.2996916248211934  0.9983860036007143  0.7251343353447911  1.0000
  C   C6        1.0  0.7002831685471946  0.0016193424066627997  0.2748667405018638  1.0000
  C   C7        1.0  0.3918667787297707  0.1258595589254767  0.6878359416583779  1.0000
  C   C8        1.0  0.6081173199961043  0.8741457785114547  0.31216554071844643  1.0000
  C   C9        1.0  0.621343371907905  0.13848795745178677  0.5875781465828993  1.0000
  C   C10       1.0  0.37864149337345787  0.8615091291099118  0.41241994652215663  1.0000
  C   C11       1.0  0.709793023359083  0.26392093509821274  0.5535019736487641  1.0000
  C   C12       1.0  0.29020396150445293  0.73607510051999  0.4464991136223306  1.0000
  C   C13       1.0  0.5711307007606125  0.3813873140779123  0.6243356771594082  1.0000
  C   C14       1.0  0.4288873629429659  0.6186076914276128  0.3756589105234981  1.0000
  C   C15       1.0  0.346395455151452  0.37343909689649724  0.7220065013286077  1.0000
  C   C16       1.0  0.6536245618305402  0.626563125129735  0.2779913631843699  1.0000
  C   C17       1.0  0.2479147760046914  0.24637749497646408  0.7553854862231263  1.0000
  C   C18       1.0  0.7520909917032628  0.7536257634306125  0.24461490765285998  1.0000
  C   C19       1.0  0.9429952206751864  0.2784729262973186  0.4445231230490806  1.0000
  C   C20       1.0  0.05700166509578963  0.7215169295515835  0.5554727530341028  1.0000
  I   I1        1.0  0.6516803077301889  0.6485513057696508  0.8897279852457773  1.0000
  I   I2        1.0  0.3483325097889747  0.35145194019569453  0.11027473858601412  1.0000
  N   N1        1.0  0.019671995961644505  0.24051299426196243  0.8522221564454713  1.0000
  N   N2        1.0  0.9803342045703265  0.7594892285921445  0.14777914838858666  1.0000
