data_image0
_chemical_formula_structural       Cd4H60C64N16Cl4
_chemical_formula_sum              "Cd4 H60 C64 N16 Cl4"
_cell_length_a       10.282056481
_cell_length_b       11.357092665683384
_cell_length_c       13.4673
_cell_angle_alpha    90.0
_cell_angle_beta     90.0
_cell_angle_gamma    92.34692946793041

_space_group_name_H-M_alt    "P 1"
_space_group_IT_number       1

loop_
  _space_group_symop_operation_xyz
  'x, y, z'

loop_
  _atom_site_type_symbol
  _atom_site_label
  _atom_site_symmetry_multiplicity
  _atom_site_fract_x
  _atom_site_fract_y
  _atom_site_fract_z
  _atom_site_occupancy
  Cd  Cd1       1.0  0.7622956239296598  0.3688579490793131  0.6078285922196757  1.0000
  Cd  Cd2       1.0  0.7377024862489349  0.6311423847367621  0.1078285922196756  1.0000
  Cd  Cd3       1.0  0.2377022354050098  0.6311406222442955  0.39217066524098954  1.0000
  Cd  Cd4       1.0  0.2622954528063062  0.3688579490793131  0.8921721503196665  1.0000
  H   H1        1.0  0.055175416088147196  0.1668692620623418  0.0007328863246556  1.0000
  H   H2        1.0  0.4448194341394752  0.8331310717537336  0.5007321437853136  1.0000
  H   H3        1.0  0.9448225229670937  0.8331310717537336  0.9992678562146864  1.0000
  H   H4        1.0  0.555179477483847  0.1668692620623418  0.4992685987540213  1.0000
  H   H5        1.0  0.8642033445352553  0.0278182998981933  0.025978481210039202  1.0000
  H   H6        1.0  0.6357927407865915  0.9721802714254153  0.5259792237493812  1.0000
  H   H7        1.0  0.1357955272277849  0.9721811526716452  0.9740222613292958  1.0000
  H   H8        1.0  0.364206051255877  0.027817418651956395  0.4740222613292957  1.0000
  H   H9        1.0  0.6837894076606118  0.0149036363252222  0.9038708575586797  1.0000
  H   H10       1.0  0.8162067972420957  0.98509757873709  0.4038716000980145  1.0000
  H   H11       1.0  0.3162104366705165  0.9850958162446163  0.0961291424413204  1.0000
  H   H12       1.0  0.1837911816734277  0.0149036363252222  0.5961291424413204  1.0000
  H   H13       1.0  0.6884201115354854  0.1387398822432147  0.7520564626911082  1.0000
  H   H14       1.0  0.8115771456558817  0.8612630953115571  0.2520572052304502  1.0000
  H   H15       1.0  0.3115777477991841  0.8612586890803869  0.24794130969088  1.0000
  H   H16       1.0  0.1884189678440436  0.1387398822432147  0.7479427947695498  1.0000
  H   H17       1.0  0.1479582716438017  0.3948723379345935  0.617081374885835  1.0000
  H   H18       1.0  0.3520413617036837  0.6051262333890151  0.1170806323465001  1.0000
  H   H19       1.0  0.8520414929667551  0.6051253521427782  0.382918625114165  1.0000
  H   H20       1.0  0.6479584826274447  0.3948732191808233  0.8829201101928348  1.0000
  H   H21       1.0  0.16385902786581846  0.4935498850914329  0.7196149191003371  1.0000
  H   H22       1.0  0.3361406054816598  0.5064486862321758  0.2196149191003371  1.0000
  H   H23       1.0  0.8361398040369323  0.5064486862321758  0.2803858234389978  1.0000
  H   H24       1.0  0.663858226421091  0.4935498850914329  0.7803858234389978  1.0000
  H   H25       1.0  0.0277192164726259  0.4994903659611296  0.6376497144936266  1.0000
  H   H26       1.0  0.4722824417316075  0.5005099678549456  0.1376504570329615  1.0000
  H   H27       1.0  0.972281640286873  0.5005099678549456  0.36235102804570823  1.0000
  H   H28       1.0  0.527717442459803  0.4994903659611296  0.8623510280457083  1.0000
  H   H29       1.0  0.9895924555236704  0.1748868403077779  0.5312215514616909  1.0000
  H   H30       1.0  0.510407599791094  0.8251134935082973  0.031220808922356  1.0000
  H   H31       1.0  0.0104084012358285  0.8251134935082973  0.4687784485383091  1.0000
  H   H32       1.0  0.4895913118322283  0.1748868403077779  0.9687806761563209  1.0000
  H   H33       1.0  0.12417773598894398  0.0557167932037643  0.4184743786802088  1.0000
  H   H34       1.0  0.3758229496472012  0.9442835406123109  0.9184736361408739  1.0000
  H   H35       1.0  0.8758240136180717  0.9442817781198443  0.581527848937796  1.0000
  H   H36       1.0  0.6241788398200967  0.05571591195752751  0.0815271063984611  1.0000
  H   H37       1.0  0.8958156632796062  0.1528080971377221  0.1631217838764982  1.0000
  H   H38       1.0  0.6041843920351582  0.8471922366783531  0.6631210413371633  1.0000
  H   H39       1.0  0.10418799160328969  0.8471895929396497  0.8368782161235019  1.0000
  H   H40       1.0  0.39581459930874263  0.1528098596301888  0.3368804437415065  1.0000
  H   H41       1.0  0.519645897034188  0.38380564771627956  0.4474824203812204  1.0000
  H   H42       1.0  0.9803531458522059  0.6161938048535589  0.9474816778418856  1.0000
  H   H43       1.0  0.4803568650011982  0.6161938048535589  0.552513124382763  1.0000
  H   H44       1.0  0.019645765771116395  0.3838065289625092  0.0525190646974494  1.0000
  H   H45       1.0  0.5329272707615118  0.42113259448941426  0.3200121776451113  1.0000
  H   H46       1.0  0.9670727048326809  0.5788659768341873  0.8200121776451113  1.0000
  H   H47       1.0  0.4670754912738744  0.5788668580804242  0.6799826245795373  1.0000
  H   H48       1.0  0.0329262067906413  0.4211343569818879  0.1799885648942237  1.0000
  H   H49       1.0  0.6236974741506031  0.5047628621847409  0.4108210257438358  1.0000
  H   H50       1.0  0.8763025413038789  0.4952365903850975  0.9108210257438358  1.0000
  H   H51       1.0  0.37630439503726615  0.4952383528775641  0.5891752615594825  1.0000
  H   H52       1.0  0.12369637031945047  0.5047637434309777  0.089180459334834  1.0000
  H   H53       1.0  0.0779649294051126  0.0423368316187478  0.2383647798742103  1.0000
  H   H54       1.0  0.42203676865940304  0.9576643834435643  0.7383640373348753  1.0000
  H   H55       1.0  0.9220387653380726  0.9576617397048608  0.7616367052044595  1.0000
  H   H56       1.0  0.5779651403887556  0.0423377128649776  0.2616381902831293  1.0000
  H   H57       1.0  0.7019362076014488  0.3170406704651327  0.2216531895777152  1.0000
  H   H58       1.0  0.7980638078530262  0.6829587821047056  0.7216524470383803  1.0000
  H   H59       1.0  0.2980684995701068  0.6829587821047056  0.7783445828042729  1.0000
  H   H60       1.0  0.2019351037702961  0.3170415517113696  0.2783490380402895  1.0000
  C   C1        1.0  0.9774198789792975  0.2328578613805021  0.8622715763367594  1.0000
  C   C2        1.0  0.5225763657836922  0.7671442349280398  0.3622700912580825  1.0000
  C   C3        1.0  0.0225771273681374  0.7671433536818029  0.1377291662025826  1.0000
  C   C4        1.0  0.4774216131318312  0.2328569801342724  0.6377306512812524  1.0000
  C   C5        1.0  0.9752738802347095  0.162320268997604  0.9474586591224679  1.0000
  C   C6        1.0  0.5247222449474265  0.8376791835722344  0.4474586591224679  1.0000
  C   C7        1.0  0.0247240189602422  0.8376791835722344  0.0525420834168671  1.0000
  C   C8        1.0  0.47527658695532427  0.1623193877513742  0.552542825956202  1.0000
  C   C9        1.0  0.8678741562920109  0.084913362213392  0.9608941658684387  1.0000
  C   C10       1.0  0.6321229414582064  0.9150860903564464  0.4608934233291038  1.0000
  C   C11       1.0  0.1321237429029409  0.9150860903564464  0.039105091592226394  1.0000
  C   C12       1.0  0.3678768630126327  0.0849124809671551  0.5391080617495732  1.0000
  C   C13       1.0  0.7655723416662141  0.0771231454965644  0.8914318386016475  1.0000
  C   C14       1.0  0.73442564893152  0.9228745445808002  0.3914325811409824  1.0000
  C   C15       1.0  0.23442555752873764  0.922876307073274  0.1085674188590176  1.0000
  C   C16       1.0  0.2655732228315202  0.0771249079890381  0.6085681613983525  1.0000
  C   C17       1.0  0.7672921470105295  0.1464305181354959  0.8059870946663423  1.0000
  C   C18       1.0  0.7327050703205485  0.853571578173046  0.30598486704833044  1.0000
  C   C19       1.0  0.2327048991971949  0.853571578173046  0.1940129053336577  1.0000
  C   C20       1.0  0.2672919758871686  0.1464305181354959  0.6940143904123345  1.0000
  C   C21       1.0  0.874221539614325  0.22477066468250942  0.7920021088117153  1.0000
  C   C22       1.0  0.6257737724408655  0.7752323128722693  0.2920006237330455  1.0000
  C   C23       1.0  0.1257764393011982  0.7752305503798028  0.2079978911882847  1.0000
  C   C24       1.0  0.3742232737668587  0.22476978343627252  0.7079986337276196  1.0000
  C   C25       1.0  0.022071749778866903  0.35442225450483994  0.7398238696694932  1.0000
  C   C26       1.0  0.47792699072110156  0.6455780793112353  0.2398231271301583  1.0000
  C   C27       1.0  0.9779271618444553  0.6455780793112353  0.2601761303305068  1.0000
  C   C28       1.0  0.5220719607625098  0.35442313575107687  0.7601768728698417  1.0000
  C   C29       1.0  0.09398656296468738  0.4404345307731958  0.6752623020204496  1.0000
  C   C30       1.0  0.4060140429508792  0.5595640405504057  0.17526230202044962  1.0000
  C   C31       1.0  0.9060132415061517  0.5595640405504057  0.3247376979795504  1.0000
  C   C32       1.0  0.593985801380242  0.4404354120194327  0.8247391830582202  1.0000
  C   C33       1.0  0.8654705756200727  0.22886052845883853  0.4099782435974575  1.0000
  C   C34       1.0  0.6345294398344095  0.7711389241109999  0.9099775010581155  1.0000
  C   C35       1.0  0.1345333184245447  0.7711424490959403  0.5900195287845378  1.0000
  C   C36       1.0  0.36547141692508933  0.22886140970507543  0.0900239840205543  1.0000
  C   C37       1.0  0.9684019367956223  0.1692918079621748  0.4519435967120344  1.0000
  C   C38       1.0  0.5315980786588597  0.8307076446076636  0.9519428541726995  1.0000
  C   C39       1.0  0.0315998128113861  0.8307067633614266  0.5480556607486307  1.0000
  C   C40       1.0  0.468402738240357  0.1692918079621748  0.0480593734453052  1.0000
  C   C41       1.0  0.0431345087068706  0.1029542351349804  0.3879961090938764  1.0000
  C   C42       1.0  0.4568661769292746  0.897046098681095  0.8879953665545415  1.0000
  C   C43       1.0  0.9568682533285154  0.897045217434858  0.6120046334454585  1.0000
  C   C44       1.0  0.5431336275415646  0.1029524726425066  0.1120061185241283  1.0000
  C   C45       1.0  0.9161029670414607  0.1563886005902617  0.2424873582678018  1.0000
  C   C46       1.0  0.5838970882733036  0.8436117332258135  0.742485873189132  1.0000
  C   C47       1.0  0.08390271269818328  0.8436108519795767  0.7575126417321982  1.0000
  C   C48       1.0  0.4161038083464775  0.1563894818364986  0.257514869350203  1.0000
  C   C49       1.0  0.8416078300311867  0.2229085913880908  0.3064162824025587  1.0000
  C   C50       1.0  0.6583921854232955  0.7770908611817475  0.8064147973238889  1.0000
  C   C51       1.0  0.1583958647120056  0.7770899799355178  0.6935829750581064  1.0000
  C   C52       1.0  0.3416076987681151  0.2229094726343277  0.1935866877547809  1.0000
  C   C53       1.0  0.6971726690913229  0.3360720641547914  0.378624520133954  1.0000
  C   C54       1.0  0.802827346363159  0.663927388415047  0.8786237775946191  1.0000
  C   C55       1.0  0.3028301328043455  0.6639282696612838  0.6213717671693644  1.0000
  C   C56       1.0  0.1971725378282585  0.3360729454010283  0.1213762224053809  1.0000
  C   C57       1.0  0.5874555942929333  0.4158072234917043  0.389516087114714  1.0000
  C   C58       1.0  0.9125443813012591  0.5841913478318972  0.8895153445753791  1.0000
  C   C59       1.0  0.4125481801708232  0.5841931103243709  0.6104787151099345  1.0000
  C   C60       1.0  0.0874544904617807  0.4158081047379412  0.11048465542462081  1.0000
  C   C61       1.0  0.017125957662784692  0.0957051036064058  0.2853103443154907  1.0000
  C   C62       1.0  0.4828757005414488  0.9042952302096695  0.7853096017761558  1.0000
  C   C63       1.0  0.9828786697882065  0.9042925864709659  0.7146903982238442  1.0000
  C   C64       1.0  0.5171261287861384  0.0957051036064058  0.2146911407631791  1.0000
  N   N1        1.0  0.7728831336187411  0.2995602701489659  0.4525702999116348  1.0000
  N   N2        1.0  0.727115949127942  0.7004400636671093  0.9525695573722999  1.0000
  N   N3        1.0  0.22711772314075765  0.7004400636671093  0.5474267299310185  1.0000
  N   N4        1.0  0.27288393506347564  0.2995602701489659  0.047431185167035  1.0000
  N   N5        1.0  0.0689983024865626  0.3160660121292977  0.8274123246678968  1.0000
  N   N6        1.0  0.4309984928772367  0.6839343216867775  0.3274100970498921  1.0000
  N   N7        1.0  0.9309986640005903  0.6839343216867775  0.1725884178714381  1.0000
  N   N8        1.0  0.5689994461780046  0.3160660121292977  0.672589160410773  1.0000
  N   N9        1.0  0.7353142944436186  0.2913144491286772  0.2903299102269941  1.0000
  N   N10       1.0  0.7646866935789447  0.708685003441161  0.7903299102269941  1.0000
  N   N11       1.0  0.26469045258822627  0.708685884687391  0.7096671196156592  1.0000
  N   N12       1.0  0.23531319061246592  0.2913153303749141  0.2096715748516758  1.0000
  N   N13       1.0  0.9051687953546615  0.3031266736617511  0.7155376356062461  1.0000
  N   N14       1.0  0.5948293945445045  0.6968754226467979  0.21553615052757638  1.0000
  N   N15       1.0  0.09482914370057931  0.6968736601543242  0.2844631069330887  1.0000
  N   N16       1.0  0.4051686242313011  0.3031266736617511  0.7844638494724238  1.0000
  Cl  Cl1       1.0  0.7910862618844945  0.5858701219094513  0.5829134273388163  1.0000
  Cl  Cl2       1.0  0.7089127810018994  0.41412933066038704  0.0829126847994743  1.0000
  Cl  Cl3       1.0  0.20891840542677895  0.4141284494141503  0.41708954281853045  1.0000
  Cl  Cl4       1.0  0.29108224034907687  0.5858710031556882  0.917083602503844  1.0000
