data_image0
_chemical_formula_structural       Cd2H42C66N16O24
_chemical_formula_sum              "Cd2 H42 C66 N16 O24"
_cell_length_a       10.97297664809156
_cell_length_b       13.121207766552963
_cell_length_c       13.811475727279912
_cell_angle_alpha    93.51213665665378
_cell_angle_beta     107.76981201493463
_cell_angle_gamma    99.08794965560247

_space_group_name_H-M_alt    "P 1"
_space_group_IT_number       1

loop_
  _space_group_symop_operation_xyz
  'x, y, z'

loop_
  _atom_site_type_symbol
  _atom_site_label
  _atom_site_symmetry_multiplicity
  _atom_site_fract_x
  _atom_site_fract_y
  _atom_site_fract_z
  _atom_site_occupancy
  Cd  Cd1       1.0  0.5206825701305746  0.6831677181196268  0.3482547821002412  1.0000
  Cd  Cd2       1.0  0.4793199116454759  0.31682916897179336  0.6517487316061332  1.0000
  H   H1        1.0  0.43220257123177663  0.8555573030373652  0.46526150888747253  1.0000
  H   H2        1.0  0.5677975738880292  0.1444419257955829  0.5347409073499632  1.0000
  H   H3        1.0  0.25770065425785305  0.8862067214067083  0.5394956180332783  1.0000
  H   H4        1.0  0.742295191323649  0.1137948849997912  0.4605023529965705  1.0000
  H   H5        1.0  0.09687561680610908  0.5578574414369015  0.4622023616666126  1.0000
  H   H6        1.0  0.9031242499983279  0.4421449307677819  0.537797317391252  1.0000
  H   H7        1.0  0.27817615551777664  0.5400474277951163  0.3938716173934934  1.0000
  H   H8        1.0  0.7218255489886901  0.4599463856236455  0.6061286012031033  1.0000
  H   H9        1.0  0.016084255420828687  0.8115370035607796  0.5190997252491414  1.0000
  H   H10       1.0  0.9839097968813706  0.18846542435694155  0.48089426901284316  1.0000
  H   H11       1.0  0.9670685410647696  0.6736141075092877  0.5091296148309468  1.0000
  H   H12       1.0  0.03292436019365398  0.32638755264526514  0.4908633345909478  1.0000
  H   H13       1.0  0.09568446729912951  0.9575640660861995  0.9029040831109896  1.0000
  H   H14       1.0  0.9043248086272657  0.04244226314148141  0.09709153475112231  1.0000
  H   H15       1.0  0.04424284551936347  0.5644514720196696  0.8890037927822474  1.0000
  H   H16       1.0  0.9557501200289383  0.4355539963586639  0.11099596007758811  1.0000
  H   H17       1.0  0.1261387178739852  0.8593993688666899  0.28037283311465433  1.0000
  H   H18       1.0  0.8738551648254572  0.14060227337184736  0.7196217901765606  1.0000
  H   H19       1.0  0.13718558935297406  0.7243232712861384  0.2797470584482866  1.0000
  H   H20       1.0  0.8628107032501832  0.2756807353104662  0.720245393477178  1.0000
  H   H21       1.0  0.9198402629633406  0.9167206343749612  0.2743294465684868  1.0000
  H   H22       1.0  0.08015475842256592  0.08328178425725241  0.7256654951594752  1.0000
  H   H23       1.0  0.7065023511063802  0.8713595786093437  0.30512835786319675  1.0000
  H   H24       1.0  0.29349933118872684  0.12863810344677523  0.6948735793479697  1.0000
  H   H25       1.0  0.7221585180505985  0.5573959805581837  0.2888542857854545  1.0000
  H   H26       1.0  0.27784658030388704  0.4426040306789645  0.7111486067359533  1.0000
  H   H27       1.0  0.936570027888209  0.5888743515661545  0.2590190818658655  1.0000
  H   H28       1.0  0.06343414991538758  0.41113039231711923  0.7409781415481828  1.0000
  H   H29       1.0  0.5935758485004784  0.46879618427411884  0.4094167026994525  1.0000
  H   H30       1.0  0.40643211752988856  0.5311999736217103  0.590583681588633  1.0000
  H   H31       1.0  0.5166815174469335  0.27633499870926675  0.3645827503726337  1.0000
  H   H32       1.0  0.48332135046063485  0.7236595738421628  0.6354192394673887  1.0000
  H   H33       1.0  0.20678886375480232  0.3399385392431641  0.11057163833467598  1.0000
  H   H34       1.0  0.7932085198984568  0.6600567625038565  0.8894334809236352  1.0000
  H   H35       1.0  0.2966181437834479  0.5297759609998637  0.16360247529933497  1.0000
  H   H36       1.0  0.703384955513478  0.4702193540781893  0.8364025175281566  1.0000
  H   H37       1.0  0.31681499310916195  0.140083651619463  0.28027297388165806  1.0000
  H   H38       1.0  0.6831881309024085  0.8599116461975742  0.719733471752505  1.0000
  H   H39       1.0  0.19642739847292026  0.16223691014462102  0.16780863480104805  1.0000
  H   H40       1.0  0.8035736054111595  0.8377576291947549  0.8321958185270473  1.0000
  H   H41       1.0  0.6854274706964247  0.9847968420295744  0.1589341346732596  1.0000
  H   H42       1.0  0.3145780508615418  0.0152008287760523  0.8410694131918104  1.0000
  C   C1        1.0  0.3557250992847046  0.7920046467391942  0.46633170178647987  1.0000
  C   C2        1.0  0.644275021120457  0.20799459935476963  0.5336692616442774  1.0000
  C   C3        1.0  0.2579941436029358  0.8084854199323175  0.5069320121694287  1.0000
  C   C4        1.0  0.7420003442600632  0.1915146589233601  0.4930633638395533  1.0000
  C   C5        1.0  0.16148170494745528  0.7242527607445979  0.5054183276343948  1.0000
  C   C6        1.0  0.8385101292651526  0.2757442198568825  0.4945754903495396  1.0000
  C   C7        1.0  0.16958424450519516  0.6259776056982531  0.46543242105903454  1.0000
  C   C8        1.0  0.8304068421590215  0.3740239867222145  0.53456589746429  1.0000
  C   C9        1.0  0.2701225160671826  0.6157752401435915  0.4259937943561382  1.0000
  C   C10       1.0  0.7298756810311673  0.3842278672672138  0.5740091719672475  1.0000
  C   C11       1.0  0.04859549115730737  0.7390970943214299  0.5422678002643194  1.0000
  C   C12       1.0  0.9514009685453291  0.2609038465780317  0.4577208512106593  1.0000
  C   C13       1.0  0.09176190241546317  0.8400302216237066  0.7132729634171894  1.0000
  C   C14       1.0  0.9082348529664159  0.15997527002616613  0.2867254944831926  1.0000
  C   C15       1.0  0.08540124712310879  0.8106460804020945  0.8143197777132797  1.0000
  C   C16       1.0  0.9145943794263545  0.18935477484726698  0.18567591673244965  1.0000
  C   C17       1.0  0.08810013726829882  0.873573684571639  0.9002835071654544  1.0000
  C   C18       1.0  0.9119030590942786  0.12643107722765023  0.09971204237928076  1.0000
  C   C19       1.0  0.07717055390690317  0.8206091589428652  0.9824888030364674  1.0000
  C   C20       1.0  0.9228354162795328  0.1793995213118366  0.017504769890727728  1.0000
  C   C21       1.0  0.06396304985127439  0.7121041032857606  0.9785425144808925  1.0000
  C   C22       1.0  0.9360406454655177  0.2879068755579226  0.021453592994049597  1.0000
  C   C23       1.0  0.05891247113533639  0.64887607445786  0.8920551744666977  1.0000
  C   C24       1.0  0.9410823337218089  0.35112944439353566  0.10794066209838593  1.0000
  C   C25       1.0  0.0701119076981271  0.7018952238915761  0.8099472722886529  1.0000
  C   C26       1.0  0.9298781480957813  0.29810642096694556  0.19004646675200118  1.0000
  C   C27       1.0  0.06310605545361624  0.6601656917529299  0.7052368036241177  1.0000
  C   C28       1.0  0.9368868235934332  0.3398398370389729  0.2947578644123539  1.0000
  C   C29       1.0  0.07928025847104438  0.8623835437245404  0.0861713685980874  1.0000
  C   C30       1.0  0.9207243326819923  0.1376227197340469  0.9138289551775283  1.0000
  C   C31       1.0  0.05803490268524309  0.6821422129122893  0.0795147027931762  1.0000
  C   C32       1.0  0.9419626883530868  0.317867215764025  0.9204798835577106  1.0000
  C   C33       1.0  0.07650317887624421  0.7802022376165993  0.2461490665343078  1.0000
  C   C34       1.0  0.9234991200432744  0.21979863030880156  0.7538467225432367  1.0000
  C   C35       1.0  0.9458047711432583  0.7560143859001159  0.2630904122957817  1.0000
  C   C36       1.0  0.0541916054578735  0.24398570890659244  0.736903953031806  1.0000
  C   C37       1.0  0.8797494076051537  0.8357504265248608  0.2761955841841299  1.0000
  C   C38       1.0  0.12024470648365342  0.16425195824031394  0.7238020420945472  1.0000
  C   C39       1.0  0.7605164161356159  0.8113386470267018  0.29331317827738707  1.0000
  C   C40       1.0  0.23948234905432036  0.1886629228927745  0.7066883615537449  1.0000
  C   C41       1.0  0.7687608999328147  0.6359164592299321  0.28409965536670967  1.0000
  C   C42       1.0  0.23124051640424167  0.364084357567407  0.7159002710682213  1.0000
  C   C43       1.0  0.888493265776262  0.6538888782255157  0.26710756017439496  1.0000
  C   C44       1.0  0.1115048670322025  0.34611042096150163  0.7328886027110497  1.0000
  C   C45       1.0  0.5092379852570444  0.4368248146891888  0.3429568113881202  1.0000
  C   C46       1.0  0.4907658023049494  0.5631697830987719  0.6570432203045299  1.0000
  C   C47       1.0  0.4659719503563622  0.33030507050386154  0.31823305146683367  1.0000
  C   C48       1.0  0.5340310995112887  0.6696902790962301  0.6817690357472941  1.0000
  C   C49       1.0  0.3539920333075913  0.29293057748731144  0.23485824071530456  1.0000
  C   C50       1.0  0.64600937156861  0.7070654900578859  0.7651485865710227  1.0000
  C   C51       1.0  0.2935359981177471  0.3654602723597478  0.17684963445230295  1.0000
  C   C52       1.0  0.7064627185393706  0.6345365741991175  0.8231566270202106  1.0000
  C   C53       1.0  0.34298809965314103  0.4710645802579665  0.2057744261972587  1.0000
  C   C54       1.0  0.6570144315521987  0.5289322723114154  0.7942319931224728  1.0000
  C   C55       1.0  0.3009860880993003  0.1775929082166954  0.20971857814769373  1.0000
  C   C56       1.0  0.6990152797049378  0.8224031852200326  0.7902860699286193  1.0000
  C   C57       1.0  0.4823744361919467  0.09333263013920151  0.184943375105334  1.0000
  C   C58       1.0  0.5176252619061971  0.9066641985036413  0.8150645602364931  1.0000
  C   C59       1.0  0.5059233713330684  0.04291538836308461  0.09442300119071938  1.0000
  C   C60       1.0  0.4940779964711695  0.9570807050736436  0.9055816468855935  1.0000
  C   C61       1.0  0.6061122480066815  0.9913372437128275  0.09056254161952643  1.0000
  C   C62       1.0  0.39388815071384203  0.008658859009408104  0.9094411589908017  1.0000
  C   C63       1.0  0.4033139815303385  0.05150875502763339  0.006776168355486238  1.0000
  C   C64       1.0  0.5966879790801302  0.94848578365675  0.9932285060352511  1.0000
  C   C65       1.0  0.31270018073740863  0.10862413814089682  0.0394203051249846  1.0000
  C   C66       1.0  0.6873049670463587  0.8913758385742128  0.9605854930097804  1.0000
  N   N1        1.0  0.3612340600637581  0.6974535394854086  0.4255871638837759  1.0000
  N   N2        1.0  0.6387710012187641  0.30254649764327013  0.5744135494276179  1.0000
  N   N3        1.0  0.0789537625785712  0.7466482538813467  0.6528291878282741  1.0000
  N   N4        1.0  0.9210430768012758  0.25335332597863675  0.34717118347423775  1.0000
  N   N5        1.0  0.06582502362726222  0.774656650175942  0.1384553007791354  1.0000
  N   N6        1.0  0.934174542650446  0.22535273403782702  0.8615433597137282  1.0000
  N   N7        1.0  0.7053513358144272  0.7129752237901883  0.29700943064445795  1.0000
  N   N8        1.0  0.2946537378254206  0.2870248047079826  0.7029920090702714  1.0000
  N   N9        1.0  0.44866767576783684  0.5065229638760728  0.2884076381405619  1.0000
  N   N10       1.0  0.5513340410959557  0.4934708409121811  0.7115933068593775  1.0000
  N   N11       1.0  0.36406423463540705  0.1282616829057801  0.14608647115343837  1.0000
  N   N12       1.0  0.6359384785300081  0.8717359467122776  0.8539200455403984  1.0000
  N   N13       1.0  0.7217555516437244  0.718788673504889  0.548819925219277  1.0000
  N   N14       1.0  0.2782467259608836  0.28121130517521215  0.4511852097275692  1.0000
  N   N15       1.0  0.39381135134124173  0.8127207565834096  0.20204705877713275  1.0000
  N   N16       1.0  0.6061905474826262  0.18727382525352004  0.7979539835969048  1.0000
  O   O1        1.0  0.10531155960748616  0.9262513351657591  0.684430221637619  1.0000
  O   O2        1.0  0.8946900881189283  0.0737502241582177  0.3155727077847814  1.0000
  O   O3        1.0  0.046109582664882985  0.5696747730942989  0.6680998552566491  1.0000
  O   O4        1.0  0.9538829299587449  0.43032535022392443  0.33189144661035624  1.0000
  O   O5        1.0  0.09139723165122862  0.9520137153760971  0.12256541821865602  1.0000
  O   O6        1.0  0.9086094203459681  0.04799720108902511  0.8774364372675832  1.0000
  O   O7        1.0  0.0489024154326501  0.5958010869197922  0.10901274183492402  1.0000
  O   O8        1.0  0.9510929698734076  0.4042028858097666  0.8909823946412557  1.0000
  O   O9        1.0  0.5494876719326245  0.10554540558673862  0.2750525022454511  1.0000
  O   O10       1.0  0.45051318706335053  0.8944483308124378  0.7249540329185606  1.0000
  O   O11       1.0  0.21324172607450012  0.1348041901651342  0.9865374909065352  1.0000
  O   O12       1.0  0.7867656768708288  0.8652012079746852  0.013470662716294227  1.0000
  O   O13       1.0  0.6800705737046685  0.6266871675126566  0.5005175071804117  1.0000
  O   O14       1.0  0.3199276703196857  0.37331205399977563  0.4994851933350829  1.0000
  O   O15       1.0  0.6674392749579141  0.7926752077688592  0.5101289504286369  1.0000
  O   O16       1.0  0.3325658851831719  0.20732476031574276  0.4898775741094709  1.0000
  O   O17       1.0  0.812534931491058  0.7348243332679516  0.6317589012932031  1.0000
  O   O18       1.0  0.18746607239302904  0.26517020607143144  0.3682455520348923  1.0000
  O   O19       1.0  0.3586105294324683  0.7139920957684538  0.18085134727275687  1.0000
  O   O20       1.0  0.6413919498403118  0.2860009399466393  0.8191489950123766  1.0000
  O   O21       1.0  0.48176382975680815  0.8490061361308606  0.2878556104328495  1.0000
  O   O22       1.0  0.5182373437300357  0.15098918888770643  0.7121482138660153  1.0000
  O   O23       1.0  0.3440355265755741  0.8726216417588619  0.1415125266572232  1.0000
  O   O24       1.0  0.6559694120302028  0.1273737237922674  0.8584885498755097  1.0000
