data_image0
_chemical_formula_structural       Hg2H28C32S4N12
_chemical_formula_sum              "Hg2 H28 C32 S4 N12"
_cell_length_a       6.898594961609991
_cell_length_b       10.934572652110017
_cell_length_c       13.36419261131075
_cell_angle_alpha    93.07363906026859
_cell_angle_beta     104.95685022157392
_cell_angle_gamma    108.39751707174139

_space_group_name_H-M_alt    "P 1"
_space_group_IT_number       1

loop_
  _space_group_symop_operation_xyz
  'x, y, z'

loop_
  _atom_site_type_symbol
  _atom_site_label
  _atom_site_symmetry_multiplicity
  _atom_site_fract_x
  _atom_site_fract_y
  _atom_site_fract_z
  _atom_site_occupancy
  Hg  Hg1       1.0  0.46171531560052875  0.7500216334982  0.7500668327994545  1.0000
  Hg  Hg2       1.0  0.5382842910739143  0.2499812486887976  0.24993463817218495  1.0000
  H   H1        1.0  0.09229771774987225  0.7527256415234476  0.5550844685668181  1.0000
  H   H2        1.0  0.28435662215562735  0.7472765467667485  0.9449819537280818  1.0000
  H   H3        1.0  0.9077028815237326  0.24727336566898822  0.4449151705341734  1.0000
  H   H4        1.0  0.7156364976000732  0.25272440172903987  0.05501835074870339  1.0000
  H   H5        1.0  0.7986871756080801  0.8400970102130003  0.4932963026636443  1.0000
  H   H6        1.0  0.9650940273236512  0.6596835168053089  0.006737737379367577  1.0000
  H   H7        1.0  0.20131583194847022  0.1599039489648462  0.5067033939174905  1.0000
  H   H8        1.0  0.03490264101579055  0.3403115457555472  0.9932642252187591  1.0000
  H   H9        1.0  0.051415208336678016  0.1025779329255343  0.7862647129544981  1.0000
  H   H10       1.0  0.66230332261879  0.3975054267970604  0.7136280259256012  1.0000
  H   H11       1.0  0.9485961710621994  0.8974249790052085  0.21373501441263437  1.0000
  H   H12       1.0  0.33769502276618374  0.6024916002011692  0.2863732459114702  1.0000
  H   H13       1.0  0.33534962416877107  0.004469794680865399  0.8365854998736993  1.0000
  H   H14       1.0  0.994178650766223  0.495748490511467  0.6633570076657661  1.0000
  H   H15       1.0  0.6646567842698874  0.9955292414878303  0.1634124223169238  1.0000
  H   H16       1.0  0.005815019090704312  0.5042534323246031  0.3366434224179997  1.0000
  H   H17       1.0  0.6380704129411116  0.20587091079634223  0.6090852132062352  1.0000
  H   H18       1.0  0.3227767164627552  0.2941089364290619  0.8909053581054139  1.0000
  H   H19       1.0  0.36193947054840686  0.7941290499047824  0.3909158275561495  1.0000
  H   H20       1.0  0.6772169193237687  0.705880352264522  0.10909152844331517  1.0000
  H   H21       1.0  0.9219352915419208  0.24136200918032094  0.6504377812700071  1.0000
  H   H22       1.0  0.5297794021014043  0.2586056024408592  0.8495330264442345  1.0000
  H   H23       1.0  0.0780678971508096  0.7586379632052881  0.34956253794533154  1.0000
  H   H24       1.0  0.4702173732054646  0.7413856257861795  0.1504646658258224  1.0000
  H   H25       1.0  0.7659591088827614  0.1682288180483766  0.732124108497878  1.0000
  H   H26       1.0  0.36532803028872946  0.33177321822203953  0.7678486379838957  1.0000
  H   H27       1.0  0.23404839975835046  0.8317721668008743  0.2678740649067208  1.0000
  H   H28       1.0  0.6346678059027013  0.6682199678326484  0.23214875099277776  1.0000
  C   C1        1.0  0.07865397364771097  0.8309474539702605  0.6040029384685964  1.0000
  C   C2        1.0  0.1435666118829389  0.6690322018625138  0.8960366475488613  1.0000
  C   C3        1.0  0.9213509455742823  0.16905256568580998  0.39599455482165513  1.0000
  C   C4        1.0  0.8564263200438946  0.3309657987085188  0.10396477658935045  1.0000
  C   C5        1.0  0.9142440386880962  0.8796782349947206  0.5697846526227721  1.0000
  C   C6        1.0  0.9646673670808997  0.6202340980462822  0.9302266706666914  1.0000
  C   C7        1.0  0.08576158502944511  0.12032273079285007  0.4302146564906905  1.0000
  C   C8        1.0  0.03532967022358954  0.3797629256470927  0.06977479490421248  1.0000
  C   C9        1.0  0.9014967991312232  0.9812036934240994  0.6339290020175453  1.0000
  C   C10       1.0  0.786204007595117  0.5187351287903964  0.8660415171987593  1.0000
  C   C11       1.0  0.098511440747302  0.0187972789731887  0.36606991962825214  1.0000
  C   C12       1.0  0.2137926607443177  0.48125993377045967  0.1339604453993672  1.0000
  C   C13       1.0  0.05527445420933946  0.026185470778685306  0.732018478892222  1.0000
  C   C14       1.0  0.7968889465314676  0.4738577814132939  0.7679168763425963  1.0000
  C   C15       1.0  0.944734490164734  0.9738164477500957  0.2679822585767795  1.0000
  C   C16       1.0  0.20310939885351334  0.5261392455849432  0.2320843954944749  1.0000
  C   C17       1.0  0.2141004319785227  0.9711498077446095  0.7608941528297279  1.0000
  C   C18       1.0  0.9818921385750344  0.5289499459711777  0.7390765232317094  1.0000
  C   C19       1.0  0.7859066809556907  0.028850174555579106  0.23910558518410593  1.0000
  C   C20       1.0  0.01810304724042312  0.4710500347940539  0.2609232681704157  1.0000
  C   C21       1.0  0.7357034266078983  0.04067373322587289  0.5972799336662362  1.0000
  C   C22       1.0  0.5975910838699717  0.45928661254944086  0.9026848019943542  1.0000
  C   C23       1.0  0.2643040018076447  0.9593301273737392  0.40272144248441316  1.0000
  C   C24       1.0  0.4024048732812274  0.5407035691629289  0.09731708707619185  1.0000
  C   C25       1.0  0.7660878483037975  0.1719801179760481  0.6498949955082762  1.0000
  C   C26       1.0  0.44389703810244907  0.3279909347870316  0.8500825391027576  1.0000
  C   C27       1.0  0.2339203380910106  0.8280227715881522  0.3501060613015525  1.0000
  C   C28       1.0  0.5560976711446627  0.6720012611705639  0.14991566624195937  1.0000
  C   C29       1.0  0.32008926541666244  0.4888517371753098  0.594350231771358  1.0000
  C   C30       1.0  0.7366336422747893  0.011171015625151904  0.9057781872312988  1.0000
  C   C31       1.0  0.6799021572443279  0.5111521401835546  0.4056500887528713  1.0000
  C   C32       1.0  0.2633579749077555  0.988839744375454  0.09421927133587357  1.0000
  S   S1        1.0  0.4372372675764354  0.6409075265737131  0.5772504754151484  1.0000
  S   S2        1.0  0.7190318813966101  0.8591660248459831  0.9229330851732556  1.0000
  S   S3        1.0  0.5627673635419442  0.35909731420841945  0.42275066556896956  1.0000
  S   S4        1.0  0.28095646255629  0.14084758853844903  0.07706890558266369  1.0000
  N   N1        1.0  0.22781543040091645  0.8765123587871245  0.697487459070814  1.0000
  N   N2        1.0  0.1537042416486827  0.6235631381162889  0.8025315288103201  1.0000
  N   N3        1.0  0.7721874227613129  0.12348862859951029  0.3025105472940979  1.0000
  N   N4        1.0  0.8462907095468708  0.3764397466080922  0.19746977512163258  1.0000
  N   N5        1.0  0.5750505355586029  0.9712060746253072  0.5179572977817841  1.0000
  N   N6        1.0  0.5858915617197198  0.5287685149257089  0.9820280682933742  1.0000
  N   N7        1.0  0.4249560272743765  0.0287929333346071  0.48204231462506186  1.0000
  N   N8        1.0  0.41410271838594065  0.4712197023492877  0.01797451153822038  1.0000
  N   N9        1.0  0.23765011271230208  0.3795904958674257  0.6038083805640042  1.0000
  N   N10       1.0  0.7538158230105481  0.12039444327673007  0.8962685988893284  1.0000
  N   N11       1.0  0.7623371778291671  0.6204153169525455  0.39619296610953825  1.0000
  N   N12       1.0  0.24617880603989298  0.8796173258826624  0.10372690760094366  1.0000
