data_image0
_chemical_formula_structural       La6P6H94C74N6O48
_chemical_formula_sum              "La6 P6 H94 C74 N6 O48"
_cell_length_a       15.168964091479241
_cell_length_b       15.36198693439347
_cell_length_c       15.158202704969394
_cell_angle_alpha    107.93597793534506
_cell_angle_beta     116.41352514178695
_cell_angle_gamma    103.14603517262556

_space_group_name_H-M_alt    "P 1"
_space_group_IT_number       1

loop_
  _space_group_symop_operation_xyz
  'x, y, z'

loop_
  _atom_site_type_symbol
  _atom_site_label
  _atom_site_symmetry_multiplicity
  _atom_site_fract_x
  _atom_site_fract_y
  _atom_site_fract_z
  _atom_site_occupancy
  La  La1       1.0  0.05695080294086811  0.19692069401668993  0.3645028993689152  1.0000
  La  La2       1.0  0.943047876560719  0.8030825487921549  0.6354988313638897  1.0000
  La  La3       1.0  0.3217683324247673  0.18928727017821254  0.6192153907391713  1.0000
  La  La4       1.0  0.6782311705384318  0.8107129498931372  0.3807858023004373  1.0000
  La  La5       1.0  0.08783278124440136  0.8586684454458434  0.43552046564767727  1.0000
  La  La6       1.0  0.9121699531909114  0.14133395620397954  0.5644762320986132  1.0000
  P   P1        1.0  0.1198894829505406  0.013050269702382902  0.3042424779403348  1.0000
  P   P2        1.0  0.8801124337711104  0.9869551828191733  0.6957567478024913  1.0000
  P   P3        1.0  0.19620440535119602  0.31071724289799363  0.6846509616234187  1.0000
  P   P4        1.0  0.8037965336425614  0.6892845206316665  0.31535331712863973  1.0000
  P   P5        1.0  0.8805733722583398  0.9746307398324134  0.3536531146790551  1.0000
  P   P6        1.0  0.11942429502763469  0.025368645179064203  0.6463417272429125  1.0000
  H   H1        1.0  0.6188415039256158  0.3799976731332748  0.8336735110644256  1.0000
  H   H2        1.0  0.38115630675662965  0.619997241045354  0.16632467242138205  1.0000
  H   H3        1.0  0.99647365193195  0.6579924864180812  0.2759238225177255  1.0000
  H   H4        1.0  0.00352658208866075  0.3420077071011606  0.724075710843543  1.0000
  H   H5        1.0  0.11052975102383304  0.6710604176488602  0.36101329135996  1.0000
  H   H6        1.0  0.8894725595965339  0.3289442983400193  0.6389872094847178  1.0000
  H   H7        1.0  0.33604989453210277  0.0600785162526236  0.4028287783172003  1.0000
  H   H8        1.0  0.663953060489426  0.9399291975037585  0.5971709311673337  1.0000
  H   H9        1.0  0.14950215482119944  0.4315177250054063  0.5916018321987337  1.0000
  H   H10       1.0  0.8504969994874045  0.5684817288168985  0.4083983150143808  1.0000
  H   H11       1.0  0.7423155169022237  0.780050577412254  0.1807313309271875  1.0000
  H   H12       1.0  0.2576935645307401  0.21994966322674264  0.8192741602374554  1.0000
  H   H13       1.0  0.16884561594449118  0.9856545045290446  0.1664854825762206  1.0000
  H   H14       1.0  0.8311573785731952  0.014351678311356907  0.8335124658803182  1.0000
  H   H15       1.0  0.2209875397214489  0.11630039875885252  0.2624383573761691  1.0000
  H   H16       1.0  0.7790168869948247  0.8837073087836915  0.7375613499239152  1.0000
  H   H17       1.0  0.40287297990314386  0.19133070595787421  0.3667266983440669  1.0000
  H   H18       1.0  0.5971312204789642  0.8086716613438726  0.6332680069144346  1.0000
  H   H19       1.0  0.3825135917255694  0.0973004975778053  0.24467806024310332  1.0000
  H   H20       1.0  0.6174884511484892  0.9027003997081593  0.7553185361535313  1.0000
  H   H21       1.0  0.5779651577987365  0.17764017231012727  0.4064643286358701  1.0000
  H   H22       1.0  0.42203761421674835  0.8223606890456383  0.5935299446479761  1.0000
  H   H23       1.0  0.535225551617394  0.1503771479025033  0.4896804443140752  1.0000
  H   H24       1.0  0.46477783488301583  0.8496282890271376  0.5103181158098664  1.0000
  H   H25       1.0  0.5085499986771467  0.9982756892107503  0.28205164788499826  1.0000
  H   H26       1.0  0.4914528339103299  0.0017237443879452021  0.7179481621497814  1.0000
  H   H27       1.0  0.41717445804715675  0.8615168455782795  0.30640564281561206  1.0000
  H   H28       1.0  0.5828252954184948  0.13848710879324955  0.6935934837620081  1.0000
  H   H29       1.0  0.43615876397336706  0.9489352601367145  0.426685556968259  1.0000
  H   H30       1.0  0.5638446754350995  0.05106871152353419  0.573315886168821  1.0000
  H   H31       1.0  0.2908080666709908  0.9174338164641115  0.18948176569097092  1.0000
  H   H32       1.0  0.7091950298308233  0.08256941708133071  0.8105206219229543  1.0000
  H   H33       1.0  0.24749041214913342  0.8857673085232063  0.2720707361390566  1.0000
  H   H34       1.0  0.752511514152438  0.11423819088875582  0.727931806776013  1.0000
  H   H35       1.0  0.3060184526436416  0.4885385283902083  0.8261053397437408  1.0000
  H   H36       1.0  0.6939878887421714  0.5114669523802675  0.17389719661800024  1.0000
  H   H37       1.0  0.3441879119964569  0.4488477054481592  0.7291401765736296  1.0000
  H   H38       1.0  0.6558111855721194  0.5511531948873838  0.27085576075744205  1.0000
  H   H39       1.0  0.22907967471812898  0.5991461249618126  0.8086489263993712  1.0000
  H   H40       1.0  0.7709126016717036  0.40084959907733964  0.1913516385196061  1.0000
  H   H41       1.0  0.11274514825640845  0.48149530895371134  0.7327598942675096  1.0000
  H   H42       1.0  0.887245631530881  0.5185002993842005  0.26723204818807755  1.0000
  H   H43       1.0  0.023391111751550397  0.5165868591892675  0.5759172604495433  1.0000
  H   H44       1.0  0.9766025343488991  0.48341180793101307  0.42407886312760484  1.0000
  H   H45       1.0  0.05925558180147315  0.6172196902210915  0.6979073037451188  1.0000
  H   H46       1.0  0.9407420536522793  0.3827812632186892  0.30209195294263935  1.0000
  H   H47       1.0  0.2207511497887752  0.7224935073897926  0.7141006520396473  1.0000
  H   H48       1.0  0.7792454454491208  0.27750517543708514  0.285897457471954  1.0000
  H   H49       1.0  0.15816786786384546  0.5425874533962515  0.5028574520309661  1.0000
  H   H50       1.0  0.841835181477869  0.45741727355283507  0.49714404287315983  1.0000
  H   H51       1.0  0.2717339152723994  0.6616851785693285  0.58296604993037  1.0000
  H   H52       1.0  0.7282676738704765  0.33831961086207935  0.41703942776489106  1.0000
  H   H53       1.0  0.3158309038195029  0.5221075471120784  0.6181822559078824  1.0000
  H   H54       1.0  0.6841688649740191  0.47789648228410914  0.3818221781453276  1.0000
  H   H55       1.0  0.34946234568481327  0.6234721721865598  0.7434975827455476  1.0000
  H   H56       1.0  0.6505319187325326  0.3765310892637713  0.2565041545405933  1.0000
  H   H57       1.0  0.7137090035501643  0.9413877829877678  0.1920687510218571  1.0000
  H   H58       1.0  0.2862876687640608  0.05860782862907851  0.8079251729993046  1.0000
  H   H59       1.0  0.8246216640832814  0.9728145544639661  0.17556410229229893  1.0000
  H   H60       1.0  0.17537608985895048  0.027181806227901  0.8244298713114732  1.0000
  H   H61       1.0  0.9090411127858006  0.8405754566679279  0.1827764668722624  1.0000
  H   H62       1.0  0.09095644676808942  0.15942684950427125  0.8172119455889728  1.0000
  H   H63       1.0  0.8253354170420124  0.8281318636135565  0.04860131506780617  1.0000
  H   H64       1.0  0.1746527507665192  0.1718644389983268  0.9513857066731362  1.0000
  H   H65       1.0  0.8111564325332666  0.6629328350540931  0.12273826233521855  1.0000
  H   H66       1.0  0.18884918162710565  0.337072691024666  0.8772672605737597  1.0000
  H   H67       1.0  0.8522846323461194  0.6705454628337506  0.03212544768023645  1.0000
  H   H68       1.0  0.1477152549358749  0.32945397381451613  0.9678737032889728  1.0000
  H   H69       1.0  0.6712778942225911  0.6227452962706156  0.8819866568027095  1.0000
  H   H70       1.0  0.32871221699525677  0.377248920240433  0.11801314551660623  1.0000
  H   H71       1.0  0.5847846812630735  0.6286927331940931  0.030687449482783867  1.0000
  H   H72       1.0  0.41522890636826304  0.3712933569462253  0.9693303311657856  1.0000
  H   H73       1.0  0.5184957309281444  0.6202520510105317  0.8968367155295028  1.0000
  H   H74       1.0  0.4815008049895867  0.3797258069859168  0.10317953220429402  1.0000
  H   H75       1.0  0.6444220581773195  0.801130598072426  0.9745070108244037  1.0000
  H   H76       1.0  0.355555459625684  0.19884100134402874  0.02548696220285516  1.0000
  H   H77       1.0  0.5842474724616408  0.7919651148381989  0.051703134161172774  1.0000
  H   H78       1.0  0.41574894806007007  0.20801562680664176  0.9483040303740892  1.0000
  H   H79       1.0  0.7353238182344696  0.32289520010156997  0.9254414013439671  1.0000
  H   H80       1.0  0.26466777926648194  0.6770973573646091  0.07454801311508423  1.0000
  H   H81       1.0  0.8900217292899273  0.31052269760521517  0.07238071901014126  1.0000
  H   H82       1.0  0.10997620574235613  0.6894805061091773  0.9276180273598698  1.0000
  H   H83       1.0  0.6632790102007676  0.0854704004206184  0.07216183240128539  1.0000
  H   H84       1.0  0.3367266549516686  0.9145336510106646  0.9278459100863828  1.0000
  H   H85       1.0  0.5068329360019278  0.09476457523342668  0.921694898406649  1.0000
  H   H86       1.0  0.49316570005792226  0.9052273255857912  0.07830341082041063  1.0000
  H   H87       1.0  0.5084062474408029  0.4590162427583166  0.33169913475475715  1.0000
  H   H88       1.0  0.49159196672007965  0.5409779817780418  0.6683036410051386  1.0000
  H   H89       1.0  0.3689647054211348  0.3243429710065371  0.3228866719832197  1.0000
  H   H90       1.0  0.6310257015432656  0.6756534770229553  0.6771112931494516  1.0000
  H   H91       1.0  0.25871557254137667  0.5406084564742673  0.4356224026905338  1.0000
  H   H92       1.0  0.741276837038896  0.45939387613537264  0.5643663491334792  1.0000
  H   H93       1.0  0.39817641909338164  0.6752290382866235  0.44523987931871295  1.0000
  H   H94       1.0  0.6018240991778825  0.3247733304825715  0.554753836249219  1.0000
  C   C1        1.0  0.2076695230629184  0.0400748636327535  0.2540027646641505  1.0000
  C   C2        1.0  0.7923316587693492  0.9599305966847567  0.7459967938881248  1.0000
  C   C3        1.0  0.4052174432822823  0.1187961058869718  0.33070135785874294  1.0000
  C   C4        1.0  0.5947852439929378  0.8812077891664957  0.6692944471777481  1.0000
  C   C5        1.0  0.5154173163464151  0.12230641804409711  0.4039925083724398  1.0000
  C   C6        1.0  0.48458510893045326  0.8776936864407007  0.5960013825193543  1.0000
  C   C7        1.0  0.5173042236018404  0.018627197683358104  0.36308217207025717  1.0000
  C   C8        1.0  0.482699598209429  0.9813759811757166  0.6369165655619754  1.0000
  C   C9        1.0  0.42226085554655424  0.9371335467799967  0.3456776516353843  1.0000
  C   C10       1.0  0.5777418942166435  0.06286892989447782  0.6543243535864961  1.0000
  C   C11       1.0  0.31340102632859174  0.937410019471429  0.27520481372318545  1.0000
  C   C12       1.0  0.686602017265173  0.0625946793434125  0.7247946908776015  1.0000
  C   C13       1.0  0.6288030239361644  0.023483825222065505  0.4400655268733757  1.0000
  C   C14       1.0  0.37119972199505474  0.9765186326962408  0.5599351514795998  1.0000
  C   C15       1.0  0.27558207584271344  0.44508156806824684  0.7379279186439689  1.0000
  C   C16       1.0  0.7244166489029807  0.5549201719588766  0.2620740413641868  1.0000
  C   C17       1.0  0.16142832805257973  0.5392591827884702  0.7244944103727705  1.0000
  C   C18       1.0  0.8385646717307225  0.46073647718623084  0.27550184113006554  1.0000
  C   C19       1.0  0.09338516585789589  0.5804229508848379  0.6556121014026531  1.0000
  C   C20       1.0  0.9066135550558343  0.4195787703861172  0.34438853173660544  1.0000
  C   C21       1.0  0.15886147265584327  0.6532184643148753  0.6341072173227928  1.0000
  C   C22       1.0  0.841138331801865  0.34678401540917747  0.3658941288335171  1.0000
  C   C23       1.0  0.21743106405406812  0.6054575057464503  0.5880902452663932  1.0000
  C   C24       1.0  0.7825652277733394  0.3945389080496469  0.4119070476940577  1.0000
  C   C25       1.0  0.2832035351405011  0.5639400020686054  0.6584365816893436  1.0000
  C   C26       1.0  0.716793672666334  0.4360632469540633  0.34156515122790404  1.0000
  C   C27       1.0  0.08963885236339324  0.6906474994746007  0.5582571668733182  1.0000
  C   C28       1.0  0.91035838919165  0.3093541904978565  0.4417408147125883  1.0000
  C   C29       1.0  0.7854456082282865  0.9288944692461172  0.20330229647058926  1.0000
  C   C30       1.0  0.2145503272805769  0.07110114078859911  0.796691296925573  1.0000
  C   C31       1.0  0.8275222115415629  0.7976007932537854  0.10596289249892994  1.0000
  C   C32       1.0  0.1724761925497731  0.2023985933398152  0.8940322800480374  1.0000
  C   C33       1.0  0.7968453971360036  0.6847505063066989  0.056782155619906585  1.0000
  C   C34       1.0  0.20315521353946767  0.3152488662771163  0.9432126819331756  1.0000
  C   C35       1.0  0.6775999266261864  0.619681807107533  0.9560370628493616  1.0000
  C   C36       1.0  0.32240161907495246  0.38031164033424864  0.04396499334014694  1.0000
  C   C37       1.0  0.5981414439437812  0.6551844602896465  0.9762098555257878  1.0000
  C   C38       1.0  0.4018585064520934  0.3448024316858849  0.023807333115371445  1.0000
  C   C39       1.0  0.6376910127459752  0.7696568696463544  0.02861442726790387  1.0000
  C   C40       1.0  0.3623022285857616  0.23033135144437014  0.9713882780872681  1.0000
  C   C41       1.0  0.6484818400450223  0.5105487243506702  0.9355814764925442  1.0000
  C   C42       1.0  0.3515353499653244  0.48943869829845  0.06442512275117455  1.0000
  C   C43       1.0  0.5174296750824537  0.2116697072135025  0.8242313864197327  1.0000
  C   C44       1.0  0.4825666734849675  0.7883252600693637  0.175770116422754  1.0000
  C   C45       1.0  0.6116638927231719  0.20993130292939818  0.9156030385800662  1.0000
  C   C46       1.0  0.3883353482416752  0.7900651265732819  0.08439624031484533  1.0000
  C   C47       1.0  0.7195124818240685  0.2709398166021302  0.957551993892821  1.0000
  C   C48       1.0  0.28048233064465217  0.729056565895469  0.04244264751428516  1.0000
  C   C49       1.0  0.8055513838415819  0.26427369655914384  0.03892206573513592  1.0000
  C   C50       1.0  0.1944469431734248  0.7357287612444878  0.9610772923022778  1.0000
  C   C51       1.0  0.7848699341873983  0.1972345308771111  0.07992284223887228  1.0000
  C   C52       1.0  0.21513121006469768  0.8027724697344569  0.9200791407758473  1.0000
  C   C53       1.0  0.6771635119895407  0.136682288864364  0.03854853429552206  1.0000
  C   C54       1.0  0.32283963358835177  0.8633194606555107  0.9614554094626514  1.0000
  C   C55       1.0  0.5912188418599982  0.142616980475978  0.9565434180955776  1.0000
  C   C56       1.0  0.4087829562595715  0.8573802106440594  0.04345723506639127  1.0000
  C   C57       1.0  0.877526988484149  0.1918450646188461  0.16996306487820334  1.0000
  C   C58       1.0  0.12247594045311426  0.8081642457000768  0.8300430496754673  1.0000
  C   C59       1.0  0.5458615237842821  0.6556016349317204  0.39865356074856356  1.0000
  C   C60       1.0  0.4541447009154354  0.344395593815321  0.6013510664667621  1.0000
  C   C61       1.0  0.4626527475658335  0.5750397815601502  0.3914772271615803  1.0000
  C   C62       1.0  0.537347929429579  0.4249581914008473  0.6085251374457812  1.0000
  C   C63       1.0  0.4534700502406822  0.4759248789925224  0.35479272486676905  1.0000
  C   C64       1.0  0.5465259005960591  0.5240708060668524  0.6452061760049759  1.0000
  C   C65       1.0  0.3764673381985518  0.4016151332513688  0.34961040908367386  1.0000
  C   C66       1.0  0.6235259197511311  0.5983842985358409  0.6503864296949687  1.0000
  C   C67       1.0  0.3076538459161356  0.4256829555165781  0.3810143262668647  1.0000
  C   C68       1.0  0.6923389276466169  0.5743202183667648  0.618980778859232  1.0000
  C   C69       1.0  0.31493306953387196  0.5241345520084691  0.41463335727436873  1.0000
  C   C70       1.0  0.6850619481931799  0.4758670675710377  0.5853589883953916  1.0000
  C   C71       1.0  0.39207058494981334  0.5984977255728908  0.4201197201928792  1.0000
  C   C72       1.0  0.6079288988535437  0.40150240071764653  0.5798748385022492  1.0000
  C   C73       1.0  0.22887558316330112  0.34807740371307017  0.38199006171521444  1.0000
  C   C74       1.0  0.7711200643765467  0.6519288664649707  0.6180118782702311  1.0000
  N   N1        1.0  0.31664848925070294  0.04090954111906339  0.321945464365001  1.0000
  N   N2        1.0  0.6833523439269628  0.959095152949395  0.6780530483607735  1.0000
  N   N3        1.0  0.21249804371572623  0.48968686419671315  0.6716316644219235  1.0000
  N   N4        1.0  0.7875006752820185  0.5103148476961579  0.32836830528288646  1.0000
  N   N5        1.0  0.7487826526852502  0.8186092214193934  0.1340262459401984  1.0000
  N   N6        1.0  0.2512115172982945  0.1813841726887873  0.865969850261493  1.0000
  O   O1        1.0  0.017596413097059803  0.021940214985605208  0.23003198483785778  1.0000
  O   O2        1.0  0.9824073653860808  0.9780644760332818  0.7699671869534798  1.0000
  O   O3        1.0  0.18252287020776242  0.10434341954474753  0.42243901541255713  1.0000
  O   O4        1.0  0.8174786978592864  0.8956612667277569  0.5775591645037751  1.0000
  O   O5        1.0  0.10822007317652572  0.9123340017454428  0.30676205614164354  1.0000
  O   O6        1.0  0.8917836581465224  0.08767218267708897  0.693236222939895  1.0000
  O   O7        1.0  0.7127301426710702  0.10114768522728212  0.4792254146248495  1.0000
  O   O8        1.0  0.2872715967925004  0.8988509430279024  0.5207703652206277  1.0000
  O   O9        1.0  0.6299592428449613  0.9476793044783066  0.45852456384190526  1.0000
  O   O10       1.0  0.37004026969816556  0.05232096248345641  0.5414799463699467  1.0000
  O   O11       1.0  0.2785687359213754  0.28048476024286373  0.7588272627106392  1.0000
  O   O12       1.0  0.7214354556203304  0.7195192880241591  0.24117981852702985  1.0000
  O   O13       1.0  0.1722600854855401  0.25681364791732625  0.5671693351199849  1.0000
  O   O14       1.0  0.8277397699642393  0.7431873571592362  0.43283423061502185  1.0000
  O   O15       1.0  0.09473003785966942  0.29777626190089995  0.687631375557295  1.0000
  O   O16       1.0  0.9052727176514778  0.7022262429078199  0.31237261996792404  1.0000
  O   O17       1.0  0.13026238512353663  0.735024386888412  0.5182142247361057  1.0000
  O   O18       1.0  0.869741448183639  0.26497884823916  0.48178849350281894  1.0000
  O   O19       1.0  0.99600627605777  0.6757422196033929  0.5413749749989878  1.0000
  O   O20       1.0  0.0039902701040475  0.3242579472490447  0.45862157836836565  1.0000
  O   O21       1.0  0.942727151244753  0.09054581030491703  0.4060672407848571  1.0000
  O   O22       1.0  0.057267178753015555  0.9094543236668926  0.5939263304041448  1.0000
  O   O23       1.0  0.9502128504180405  0.9167220005359624  0.3663264642559127  1.0000
  O   O24       1.0  0.049790965645279094  0.08328115018886707  0.6336702830729803  1.0000
  O   O25       1.0  0.8135101825793499  0.9600372725604345  0.4052873316649865  1.0000
  O   O26       1.0  0.18648827250405733  0.03996063938568992  0.5947100604606774  1.0000
  O   O27       1.0  0.6546369782474953  0.45392643669328697  0.8537067907090473  1.0000
  O   O28       1.0  0.34535388436407294  0.5460661285688461  0.14628295655945325  1.0000
  O   O29       1.0  0.6244347208373712  0.4790208432083817  0.9910104952544643  1.0000
  O   O30       1.0  0.37561155335045276  0.5209802615421708  0.009013899855702378  1.0000
  O   O31       1.0  0.5344759571554151  0.2663851561777122  0.7794398492268756  1.0000
  O   O32       1.0  0.46551762144862613  0.733616629043013  0.2205637770129486  1.0000
  O   O33       1.0  0.42113613059389365  0.15458118456591313  0.7887684750109187  1.0000
  O   O34       1.0  0.5788601727294138  0.8454152854986747  0.21123279855622482  1.0000
  O   O35       1.0  0.9745055484178807  0.24347374658656665  0.20272490860718045  1.0000
  O   O36       1.0  0.025498897571843312  0.7565469088862429  0.7972852887022411  1.0000
  O   O37       1.0  0.8548504004896812  0.1375094433903001  0.21284182543512026  1.0000
  O   O38       1.0  0.14515454819370183  0.8624929817620597  0.7871571910550658  1.0000
  O   O39       1.0  0.5924787235187239  0.6304555321336381  0.34894318400044017  1.0000
  O   O40       1.0  0.40752533600900887  0.36954018908529224  0.6510606806152311  1.0000
  O   O41       1.0  0.5672943066098455  0.7482459111322298  0.45286201465150094  1.0000
  O   O42       1.0  0.4327174301299904  0.2517521230729969  0.5471479630686957  1.0000
  O   O43       1.0  0.2072834078085251  0.2548665029053936  0.33180163602874296  1.0000
  O   O44       1.0  0.7927112014314517  0.7451375060378281  0.6681998202149942  1.0000
  O   O45       1.0  0.18564723118382181  0.37759955347370067  0.4342564039096927  1.0000
  O   O46       1.0  0.8143505420318604  0.6224097551484178  0.5657480597034094  1.0000
  O   O47       1.0  0.07314249261879284  0.6858247515918097  0.29959298659858297  1.0000
  O   O48       1.0  0.9268580823924848  0.3141761706641475  0.7004049388513849  1.0000
