data_image0
_chemical_formula_structural       Li4H16C8O16
_chemical_formula_sum              "Li4 H16 C8 O16"
_cell_length_a       6.0981035171396885
_cell_length_b       7.2927273524630465
_cell_length_c       8.957461238342688
_cell_angle_alpha    104.36108813349655
_cell_angle_beta     90.95885392763873
_cell_angle_gamma    99.9614298755499

_space_group_name_H-M_alt    "P 1"
_space_group_IT_number       1

loop_
  _space_group_symop_operation_xyz
  'x, y, z'

loop_
  _atom_site_type_symbol
  _atom_site_label
  _atom_site_symmetry_multiplicity
  _atom_site_fract_x
  _atom_site_fract_y
  _atom_site_fract_z
  _atom_site_occupancy
  Li  Li1       1.0  0.34954496929570666  0.10656342773798846  0.1044765266993366  1.0000
  Li  Li2       1.0  0.6504536926777432  0.8934348684229788  0.8955241264309491  1.0000
  Li  Li3       1.0  0.6591986190308103  0.4985538657546085  0.27220969042869575  1.0000
  Li  Li4       1.0  0.3408003597791449  0.5014458700529189  0.7277912472265058  1.0000
  H   H1        1.0  0.051032564276546594  0.19589687018876836  0.9449628209435234  1.0000
  H   H2        1.0  0.9489664080556608  0.804102853003364  0.055036997748501924  1.0000
  H   H3        1.0  0.278991989312253  0.3379700434940461  0.9795546698037327  1.0000
  H   H4        1.0  0.721010575535537  0.6620310986034494  0.020445461504401394  1.0000
  H   H5        1.0  0.0232741185265439  0.0122302642584486  0.2986347899681335  1.0000
  H   H6        1.0  0.9767251771199169  0.9877709111956319  0.701366432211998  1.0000
  H   H7        1.0  0.6369757874760964  0.20490907520382245  0.3517026820835128  1.0000
  H   H8        1.0  0.3630248226956424  0.7950906376177115  0.6482971506541091  1.0000
  H   H9        1.0  0.3992151963985576  0.2675077015179568  0.39278346421987465  1.0000
  H   H10       1.0  0.6007834590971441  0.732490582027623  0.6072160699472208  1.0000
  H   H11       1.0  0.04457596249809371  0.427001664564834  0.14936902097367985  1.0000
  H   H12       1.0  0.9554243243594057  0.5729965959947522  0.8506294082758359  1.0000
  H   H13       1.0  0.24498610108438604  0.5852642463202287  0.3731276332418574  1.0000
  H   H14       1.0  0.7550145090873597  0.41473546650130527  0.6268721994957644  1.0000
  H   H15       1.0  0.3532781274956278  0.9179321357413528  0.37285573316413695  1.0000
  H   H16       1.0  0.6467208513143277  0.0820676000661749  0.6271452044910646  1.0000
  C   C1        1.0  0.1171185038637788  0.6557137554983328  0.33345069960488166  1.0000
  C   C2        1.0  0.8828821127857079  0.3442859699385962  0.6665502520959167  1.0000
  C   C3        1.0  0.24367727207820164  0.8231494670521399  0.2743797967507007  1.0000
  C   C4        1.0  0.7563236614077907  0.1768516980313493  0.7256214394750202  1.0000
  C   C5        1.0  0.3975436703747873  0.7546833287838267  0.14581218936159965  1.0000
  C   C6        1.0  0.6024539744766528  0.24531783181007674  0.8541867808465682  1.0000
  C   C7        1.0  0.9933909244193017  0.7357568561626449  0.4760193734446929  1.0000
  C   C8        1.0  0.006606093236868585  0.26424143775353304  0.523980146676813  1.0000
  O   O1        1.0  0.16129208735353015  0.26960086388884713  0.03261322145758071  1.0000
  O   O2        1.0  0.8387072018151825  0.7304002989498456  0.9673868817593672  1.0000
  O   O3        1.0  0.10430281262136988  0.9308570434706809  0.21598846869400035  1.0000
  O   O4        1.0  0.8956958493520801  0.06914125269028658  0.7840121844362856  1.0000
  O   O5        1.0  0.5114741644012639  0.25460005309171396  0.3119679183218694  1.0000
  O   O6        1.0  0.48852317009141183  0.7453996804710173  0.6880318863245521  1.0000
  O   O7        1.0  0.5110890476717742  0.6298878824159286  0.1603712852256436  1.0000
  O   O8        1.0  0.4889138340125212  0.37011469932813396  0.8396291306074204  1.0000
  O   O9        1.0  0.9655783651747426  0.5222535511469103  0.2199389692154767  1.0000
  O   O10       1.0  0.034420613635212816  0.4777461846606172  0.7800619684397248  1.0000
  O   O11       1.0  0.11283678483871278  0.8523712667492089  0.5899903766151979  1.0000
  O   O12       1.0  0.887164459006051  0.14763132536544532  0.41001002517226953  1.0000
  O   O13       1.0  0.4053885859156025  0.8345428656285205  0.034952010057345696  1.0000
  O   O14       1.0  0.5946048327472438  0.16545399676689232  0.9650460784848605  1.0000
  O   O15       1.0  0.7832549787074754  0.6835398370578714  0.470466537834561  1.0000
  O   O16       1.0  0.2167486032623245  0.3164584406066879  0.5295352763956914  1.0000
