data_image0
_chemical_formula_structural       Zn2H56C52N8O10
_chemical_formula_sum              "Zn2 H56 C52 N8 O10"
_cell_length_a       9.37346160582935
_cell_length_b       12.334487934490385
_cell_length_c       12.6894
_cell_angle_alpha    64.70295127628707
_cell_angle_beta     71.95977406650783
_cell_angle_gamma    77.15538630419404

_space_group_name_H-M_alt    "P 1"
_space_group_IT_number       1

loop_
  _space_group_symop_operation_xyz
  'x, y, z'

loop_
  _atom_site_type_symbol
  _atom_site_label
  _atom_site_symmetry_multiplicity
  _atom_site_fract_x
  _atom_site_fract_y
  _atom_site_fract_z
  _atom_site_occupancy
  Zn  Zn1       1.0  0.20427991016060085  0.3944982467594045  0.4685047604908732  1.0000
  Zn  Zn2       1.0  0.7957210181261944  0.6055002346322098  0.5314962095653044  1.0000
  H   H1        1.0  0.7397940154137217  0.9463521659756892  0.850616827456328  1.0000
  H   H2        1.0  0.2602056727905406  0.0536472170952891  0.14938405175882255  1.0000
  H   H3        1.0  0.5412493375392913  0.0710433170569544  0.4318420592000365  1.0000
  H   H4        1.0  0.4587525946649792  0.9289560660140239  0.5681575186201472  1.0000
  H   H5        1.0  0.6073448176235274  0.1083241520237905  0.5286206371845736  1.0000
  H   H6        1.0  0.392657232663268  0.8916743293678238  0.4713792881444619  1.0000
  H   H7        1.0  0.7520749943757892  0.3015576463577645  0.42599683888546025  1.0000
  H   H8        1.0  0.24792593391100579  0.6984408350338569  0.5740041311707174  1.0000
  H   H9        1.0  0.6303019246807366  0.3863353434808587  0.331519559508024  1.0000
  H   H10       1.0  0.36969888552352614  0.6136640395901196  0.6684802749799772  1.0000
  H   H11       1.0  0.10249373907701913  0.3225261999579558  0.1711689721804106  1.0000
  H   H12       1.0  0.8975048271272429  0.6774731831130225  0.8288321637025718  1.0000
  H   H13       1.0  0.04029255642196719  0.2646672385553615  0.3287590797576883  1.0000
  H   H14       1.0  0.9597104977823037  0.7353321445156169  0.6712418175133196  1.0000
  H   H15       1.0  0.077432161389396  0.1002442032466959  0.2576414087208789  1.0000
  H   H16       1.0  0.9225697708148745  0.8997551798242824  0.7423589571586292  1.0000
  H   H17       1.0  0.8683411336815113  0.0912229012140102  0.4361143278247965  1.0000
  H   H18       1.0  0.1316606804402269  0.9087773835363322  0.5638872666645085  1.0000
  H   H19       1.0  0.8224176158207044  0.028045834924981198  0.3503981224577545  1.0000
  H   H20       1.0  0.17758431638356612  0.971953548145997  0.6496014553624221  1.0000
  H   H21       1.0  0.5621422781882759  0.2935768823106599  0.20863540801578748  1.0000
  H   H22       1.0  0.43785853201599423  0.7064225007603184  0.7913652145315382  1.0000
  H   H23       1.0  0.6445412247051722  0.1473849020543412  0.21557112105803355  1.0000
  H   H24       1.0  0.3554584634990903  0.8526144810166372  0.784429758157117  1.0000
  H   H25       1.0  0.7750872775238165  0.3040589049123525  0.027125044698834696  1.0000
  H   H26       1.0  0.2249136507629785  0.6959395764792689  0.9728759253573428  1.0000
  H   H27       1.0  0.03707258224997641  0.23143223889293546  0.04997975043532683  1.0000
  H   H28       1.0  0.9629282279542936  0.7685671441780427  0.9500208721120061  1.0000
  H   H29       1.0  0.9204407577209255  0.1110003363749144  0.12249619541309899  1.0000
  H   H30       1.0  0.07955993440081237  0.8889999483754281  0.8775048676847063  1.0000
  H   H31       1.0  0.7267127041916909  0.4673710712450756  0.10635878714213481  1.0000
  H   H32       1.0  0.2732881060125719  0.5326283118259028  0.8936410473458736  1.0000
  H   H33       1.0  0.921015958756101  0.4423296319595664  0.04018373332779393  1.0000
  H   H34       1.0  0.07898609153069461  0.557668849432055  0.9598161920012346  1.0000
  H   H35       1.0  0.9852695327001159  0.5336517179035738  0.15731657016880957  1.0000
  H   H36       1.0  0.014730155504146606  0.46634766516741166  0.8426835209870162  1.0000
  H   H37       1.0  0.7880444690195247  0.5585741355130907  0.2211108022480133  1.0000
  H   H38       1.0  0.2119552191847376  0.4414252475578877  0.7788885008484956  1.0000
  H   H39       1.0  0.1868382577438439  0.2615988236810765  0.7286753277187971  1.0000
  H   H40       1.0  0.8131601903778859  0.738401461069266  0.2713270367739753  1.0000
  H   H41       1.0  0.0135337462024552  0.1360264471112487  0.9183408231720804  1.0000
  H   H42       1.0  0.9864659420018072  0.8639729359597297  0.08166084410240157  1.0000
  H   H43       1.0  0.7523839979425803  0.1275118888809033  0.6950008954658173  1.0000
  H   H44       1.0  0.24761468634420677  0.872486592510711  0.30500058792600987  1.0000
  H   H45       1.0  0.9301103783851518  0.2580786674456377  0.5182367427865842  1.0000
  H   H46       1.0  0.069888069736578  0.7419216173047046  0.48176562170618814  1.0000
  H   H47       1.0  0.6070070708959889  0.7864844148118663  0.9309213115516998  1.0000
  H   H48       1.0  0.3929912591432156  0.2135167716178401  0.06907834125425437  1.0000
  H   H49       1.0  0.5517298951222571  0.7437375995429675  0.2606929092154218  1.0000
  H   H50       1.0  0.44826595475188924  0.256265390245467  0.7393073499678096  1.0000
  H   H51       1.0  0.4023556372839181  0.585435163754326  0.43078727152127533  1.0000
  H   H52       1.0  0.5976405668378107  0.4145651209960164  0.5692116660105242  1.0000
  H   H53       1.0  0.30212742821299804  0.4680329038979494  0.20408642266465193  1.0000
  H   H54       1.0  0.6978746220738046  0.5319655774936649  0.7959119265457274  1.0000
  H   H55       1.0  0.45128264836826304  0.6211966689935196  0.020550923915564574  1.0000
  H   H56       1.0  0.5487166855884169  0.37880541911555093  0.9794465485950639  1.0000
  C   C1        1.0  0.4275131134344434  0.2314989631658406  0.459100820559371  1.0000
  C   C2        1.0  0.5724876967698194  0.7685004199051376  0.5408990139286303  1.0000
  C   C3        1.0  0.5689120580079319  0.1454886703527194  0.4450825270143852  1.0000
  C   C4        1.0  0.43108887027886317  0.8545098110388949  0.5549184430417994  1.0000
  C   C5        1.0  0.6995501010594509  0.2032583654983213  0.3382915754917733  1.0000
  C   C6        1.0  0.300450709144819  0.7967410175726569  0.6617090470555526  1.0000
  C   C7        1.0  0.7309747793697597  0.3202512629236338  0.33879509992005563  1.0000
  C   C8        1.0  0.2690261489170354  0.6797472184679876  0.6612058701361221  1.0000
  C   C9        1.0  0.865246622371068  0.37553051966700923  0.23513889178506994  1.0000
  C   C10       1.0  0.1347543059157275  0.624467961724605  0.7648612902117833  1.0000
  C   C11       1.0  0.006714581102663403  0.283429382752864  0.24646454432446066  1.0000
  C   C12       1.0  0.9932863471841318  0.7165690986387573  0.7535372137910414  1.0000
  C   C13       1.0  0.9768488208571003  0.1666249363145411  0.24526157657578546  1.0000
  C   C14       1.0  0.023151989347162807  0.8333744467564372  0.7547406220901892  1.0000
  C   C15       1.0  0.8428912416100331  0.1131183811999747  0.34948868890077733  1.0000
  C   C16       1.0  0.1571095685942367  0.8868810018710036  0.6505127217058799  1.0000
  C   C17       1.0  0.6657853293307883  0.23087500104624328  0.21726102175072273  1.0000
  C   C18       1.0  0.3342166028734823  0.7691243820247351  0.7827393441287855  1.0000
  C   C19       1.0  0.7997355935091905  0.2846773069920658  0.11320826207084876  1.0000
  C   C20       1.0  0.2002664567776051  0.7153211743995485  0.8867916632581867  1.0000
  C   C21       1.0  0.941230313526539  0.1936690054665817  0.12581887265066183  1.0000
  C   C22       1.0  0.058771500595206284  0.8063312792837607  0.8741811457199944  1.0000
  C   C23       1.0  0.8274239408858933  0.4011995277895792  0.11611668068252362  1.0000
  C   C24       1.0  0.17257686931836957  0.5987998552813991  0.8838831538054778  1.0000
  C   C25       1.0  0.8905307926634765  0.4956919183759537  0.2337585335298798  1.0000
  C   C26       1.0  0.10946989945826151  0.5043083663743886  0.7662417415086014  1.0000
  C   C27       1.0  0.9264362127312823  0.4840891083253283  0.3474816152101283  1.0000
  C   C28       1.0  0.07356347547298009  0.5159102747456501  0.6525184759457048  1.0000
  C   C29       1.0  0.08766614727291261  0.23089844470969467  0.7267469411782628  1.0000
  C   C30       1.0  0.9123334228488246  0.7691018400406476  0.27325516664669186  1.0000
  C   C31       1.0  0.9928635652589223  0.1605899963340605  0.8308661190022948  1.0000
  C   C32       1.0  0.00713500094533971  0.8394093867369179  0.16913580494000505  1.0000
  C   C33       1.0  0.8697858392439741  0.12099004204408459  0.822173844196179  1.0000
  C   C34       1.0  0.13021284504281283  0.8790084393475297  0.1778284272549726  1.0000
  C   C35       1.0  0.8475570046926606  0.1535109116505495  0.7079524938644468  1.0000
  C   C36       1.0  0.15244167959412644  0.8464875697410718  0.29204977758670486  1.0000
  C   C37       1.0  0.9459000388578432  0.2272628735157127  0.6084455203871926  1.0000
  C   C38       1.0  0.05409728726388611  0.7727374112346297  0.39155710077341155  1.0000
  C   C39       1.0  0.7697004506755577  0.046980199880927394  0.9374299418952603  1.0000
  C   C40       1.0  0.23029935561122986  0.9530182815106869  0.06257207288807361  1.0000
  C   C41       1.0  0.5907414125035331  0.7902029405072923  0.019244409786821792  1.0000
  C   C42       1.0  0.4092555593706138  0.2098000492811423  0.9807540166099287  1.0000
  C   C43       1.0  0.511491198679245  0.6970215917155684  0.12503480451419327  1.0000
  C   C44       1.0  0.48850701327743457  0.3029804963935021  0.8749637127235842  1.0000
  C   C45       1.0  0.49898951816504683  0.685226723960497  0.24271388305032096  1.0000
  C   C46       1.0  0.501011292039216  0.3147726591104814  0.7572843753190382  1.0000
  C   C47       1.0  0.4156845237671689  0.5970992880016794  0.33826760775743037  1.0000
  C   C48       1.0  0.5843139243545681  0.4029009967486701  0.6617300283794023  1.0000
  C   C49       1.0  0.3604387102217288  0.5311432459140732  0.2108416266443882  1.0000
  C   C50       1.0  0.6395607418174835  0.4688579405156331  0.7891554053157606  1.0000
  C   C51       1.0  0.44279417480353095  0.6160345546369896  0.11019332355580498  1.0000
  C   C52       1.0  0.5572076393182143  0.3839657301133599  0.8898043306368777  1.0000
  N   N1        1.0  0.06271269047839212  0.2660441029435532  0.6174127167619048  1.0000
  N   N2        1.0  0.9372859938083945  0.7339543784480611  0.382589554689254  1.0000
  N   N3        1.0  0.7104776286056093  0.9579414508358681  0.9302405178064106  1.0000
  N   N4        1.0  0.28952194151612787  0.0420588339144743  0.06976001389989511  1.0000
  N   N5        1.0  0.6360864084871309  0.8751212996111092  0.0307702082240696  1.0000
  N   N6        1.0  0.3639107995520732  0.1248798868185972  0.9692297012497093  1.0000
  N   N7        1.0  0.3455313097744082  0.5226909035598197  0.3228723711170431  1.0000
  N   N8        1.0  0.6544671383473287  0.4773093811905227  0.677124476960465  1.0000
  O   O1        1.0  0.4054201709806692  0.2808884503062785  0.5342096734843622  1.0000
  O   O2        1.0  0.5945826470585516  0.7191127361234279  0.46578895265029985  1.0000
  O   O3        1.0  0.3359121651390282  0.2556233945385884  0.39370915268873574  1.0000
  O   O4        1.0  0.664087404982709  0.7443768902117539  0.6062905909582385  1.0000
  O   O5        1.0  0.8185578096014083  0.5078068823051041  0.42721531401601  1.0000
  O   O6        1.0  0.1814417605203289  0.4921934024452455  0.5727844296309713  1.0000
  O   O7        1.0  0.06265277234704308  0.4495142131286158  0.3544510526644373  1.0000
  O   O8        1.0  0.9373480378572268  0.5504851699423625  0.6455479937642395  1.0000
  O   O9        1.0  0.7469596066284298  0.0621888257065422  0.031197410936236635  1.0000
  O   O10       1.0  0.25304120357583315  0.9378105573644433  0.9688039996704206  1.0000
