data_image0
_chemical_formula_structural       Na6Er2H20C28N8O32
_chemical_formula_sum              "Na6 Er2 H20 C28 N8 O32"
_cell_length_a       8.747528895440313
_cell_length_b       9.039745581856975
_cell_length_c       14.928416158096178
_cell_angle_alpha    100.1154093918624
_cell_angle_beta     105.18494869674873
_cell_angle_gamma    94.70601468173633

_space_group_name_H-M_alt    "P 1"
_space_group_IT_number       1

loop_
  _space_group_symop_operation_xyz
  'x, y, z'

loop_
  _atom_site_type_symbol
  _atom_site_label
  _atom_site_symmetry_multiplicity
  _atom_site_fract_x
  _atom_site_fract_y
  _atom_site_fract_z
  _atom_site_occupancy
  Na  Na1       1.0  0.7380651570590616  0.3936238101415482  0.24468760243173895  1.0000
  Na  Na2       1.0  0.261954316774009  0.606352750319921  0.7553156718898534  1.0000
  Na  Na3       1.0  0.6154060535488811  0.0323116246592221  0.16382135157098787  1.0000
  Na  Na4       1.0  0.3845898737025308  0.9676909197315311  0.8361786340562387  1.0000
  Na  Na5       1.0  0.9347789526693048  0.1185828892546894  0.3593276280218304  1.0000
  Na  Na6       1.0  0.06522187269356997  0.8814207970525983  0.6406732560377505  1.0000
  Er  Er1       1.0  0.2317747702745052  0.8832645874752316  0.23455838477519103  1.0000
  Er  Er2       1.0  0.7682119713741286  0.11674024213528611  0.7654416835913904  1.0000
  H   H1        1.0  0.428005004266673  0.1827041014300832  0.05437970747993859  1.0000
  H   H2        1.0  0.571987104278769  0.8172974366241165  0.9456249264417378  1.0000
  H   H3        1.0  0.4678804605907914  0.33126609611447577  0.13454838759758297  1.0000
  H   H4        1.0  0.5321241571497737  0.6687386299242349  0.86544918714452  1.0000
  H   H5        1.0  0.736830166754075  0.8790986493605359  0.3268640826797266  1.0000
  H   H6        1.0  0.26316859871985787  0.12089946555838077  0.6731399517080445  1.0000
  H   H7        1.0  0.843193946155651  0.8169554735055299  0.2616323468025924  1.0000
  H   H8        1.0  0.1568056286679607  0.18304829428841882  0.7383716938805378  1.0000
  H   H9        1.0  0.05284772210517019  0.3534083868348005  0.5416341398665521  1.0000
  H   H10       1.0  0.9471672408959718  0.6465954236632213  0.4583730509507119  1.0000
  H   H11       1.0  0.14721879849735586  0.21923480253669678  0.5129027257960032  1.0000
  H   H12       1.0  0.8527938027251024  0.7807755048929363  0.48709265271239116  1.0000
  H   H13       1.0  0.06368627360026123  0.4707542078409973  0.38003349810725945  1.0000
  H   H14       1.0  0.9363320303955119  0.5292472072501084  0.6199686389452451  1.0000
  H   H15       1.0  0.0167159764305111  0.5955520019974685  0.3163592765568879  1.0000
  H   H16       1.0  0.9833099267522627  0.4044528101427431  0.6836437413908099  1.0000
  H   H17       1.0  0.6221450224990337  0.5436947902185311  0.4338616753852448  1.0000
  H   H18       1.0  0.377855478883987  0.45631314588982974  0.566128177178207  1.0000
  H   H19       1.0  0.2595002258508358  0.4767563995589441  0.04792331846039839  1.0000
  H   H20       1.0  0.7404806958147461  0.5232588069507145  0.952084185777103  1.0000
  C   C1        1.0  0.44705856450239173  0.6717940396993782  0.3622064858863325  1.0000
  C   C2        1.0  0.552921116803411  0.32819502398822914  0.6377956134293042  1.0000
  C   C3        1.0  0.5419917897505045  0.6279408149878802  0.44171542759686827  1.0000
  C   C4        1.0  0.4579976206900795  0.3720492817362668  0.5582836470072862  1.0000
  C   C5        1.0  0.4411612247548078  0.7935254583244247  0.539975784694654  1.0000
  C   C6        1.0  0.5588394719373824  0.206469208759728  0.46002621739513216  1.0000
  C   C7        1.0  0.34871296662890217  0.8426722458615359  0.46105107905010095  1.0000
  C   C8        1.0  0.6512981997563898  0.15733837681883495  0.5389568289206892  1.0000
  C   C9        1.0  0.43876201283275407  0.6082994235084058  0.2598454811616691  1.0000
  C   C10       1.0  0.561229128843067  0.39172020108384237  0.740158734346174  1.0000
  C   C11       1.0  0.4339973782075077  0.8510119335642087  0.6399133075286796  1.0000
  C   C12       1.0  0.566006257782135  0.14898602238240943  0.3600847952497829  1.0000
  C   C13       1.0  0.24121705600234822  0.9658352857940922  0.46207791237042517  1.0000
  C   C14       1.0  0.7587865740459564  0.0341810425474662  0.5379313441174034  1.0000
  C   C15       1.0  0.010245072538140196  0.2257156613487439  0.09140111162469818  1.0000
  C   C16       1.0  0.9897529320044998  0.7742845858191744  0.9085976463498111  1.0000
  C   C17       1.0  0.9035017012753385  0.1742509966231793  0.00047479214959616903  1.0000
  C   C18       1.0  0.09648183102001437  0.8257560614199233  0.9995236350968566  1.0000
  C   C19       1.0  0.061779936107946264  0.32747987158472097  0.9415974546225951  1.0000
  C   C20       1.0  0.9382186599354084  0.6725079399196688  0.05840153724220435  1.0000
  C   C21       1.0  0.1601269337653193  0.3864622020119981  0.03377860227479349  1.0000
  C   C22       1.0  0.8398786945754251  0.6135165354825887  0.966219974579637  1.0000
  C   C23       1.0  0.9940722653655885  0.1627113158773525  0.1759658283161016  1.0000
  C   C24       1.0  0.005906158641806784  0.8373184064520203  0.8240339663334737  1.0000
  C   C25       1.0  0.7520047929637173  0.062354479513750484  0.9732673313118168  1.0000
  C   C26       1.0  0.2479924561532698  0.9376413822731064  0.0267369114320033  1.0000
  C   C27       1.0  0.0874291725204799  0.37154545152637297  0.8536508471815336  1.0000
  C   C28       1.0  0.9125535181416069  0.628438965622756  0.14634659754429435  1.0000
  N   N1        1.0  0.3541782577148849  0.7793482298781524  0.3741398616158022  1.0000
  N   N2        1.0  0.6458069191584171  0.22064656147627199  0.6258656852247382  1.0000
  N   N3        1.0  0.5386980356565658  0.6880733349969858  0.5295997195874661  1.0000
  N   N4        1.0  0.46128734715507846  0.31190550206839157  0.4704009692536457  1.0000
  N   N5        1.0  0.9343525868463587  0.2254003359434407  0.9274457134724584  1.0000
  N   N6        1.0  0.0656579222035703  0.7745874120788869  0.07255183913886039  1.0000
  N   N7        1.0  0.1353770898054378  0.3337991531132829  0.10785394316364717  1.0000
  N   N8        1.0  0.8646408430456063  0.6661646671298129  0.8921371326176625  1.0000
  O   O1        1.0  0.3545390046998024  0.675312800220425  0.19941751691854387  1.0000
  O   O2        1.0  0.6454670198464711  0.32470216444358607  0.8005826132114677  1.0000
  O   O3        1.0  0.5117663843905476  0.498197062869373  0.24287057767619297  1.0000
  O   O4        1.0  0.4882580610471479  0.5018224507628447  0.7571322858758476  1.0000
  O   O5        1.0  0.54110647503731  0.9570371694587791  0.6920733932051346  1.0000
  O   O6        1.0  0.45891037246688876  0.04294488759928331  0.30792328955873666  1.0000
  O   O7        1.0  0.3224727792489759  0.7884754935092672  0.6646763708366876  1.0000
  O   O8        1.0  0.677506537317086  0.21151653578801438  0.3353085364296574  1.0000
  O   O9        1.0  0.23461405471205413  0.041849474716315185  0.5402876300010532  1.0000
  O   O10       1.0  0.7653939549765026  0.9581633096069029  0.45971595889565714  1.0000
  O   O11       1.0  0.1646806758375661  0.9845638890272072  0.38023651727305446  1.0000
  O   O12       1.0  0.8353178968621648  0.0154501634833224  0.619771705625652  1.0000
  O   O13       1.0  0.0816057046922296  0.061787321389886095  0.19734169395622556  1.0000
  O   O14       1.0  0.9183912939240811  0.9382192076434984  0.8026367391779485  1.0000
  O   O15       1.0  0.9011139592272882  0.21497021398246116  0.22091304657501343  1.0000
  O   O16       1.0  0.09888010135905027  0.7850343604721743  0.7790774548891191  1.0000
  O   O17       1.0  0.7224572781290703  0.9869088184702124  0.031546404124000636  1.0000
  O   O18       1.0  0.2775520856946798  0.013078877459299998  0.9684489492029511  1.0000
  O   O19       1.0  0.665120697511213  0.052849536768327696  0.888411126926037  1.0000
  O   O20       1.0  0.3348924162271487  0.9471484351823776  0.11158850240359193  1.0000
  O   O21       1.0  0.992330869636092  0.290512005731614  0.7735867686893483  1.0000
  O   O22       1.0  0.007642831182067812  0.7094849666569446  0.22641446232181286  1.0000
  O   O23       1.0  0.19343831563658395  0.475934980437465  0.8609461478346814  1.0000
  O   O24       1.0  0.806533775408205  0.5240585214173663  0.13905180893332408  1.0000
  O   O25       1.0  0.5157161024443228  0.24895414863270554  0.10415574900375897  1.0000
  O   O26       1.0  0.48428066896133976  0.7510383114106673  0.8958480882697513  1.0000
  O   O27       1.0  0.7659904948440754  0.8881705478412201  0.2688326028056025  1.0000
  O   O28       1.0  0.2339954943495712  0.11182071019076288  0.731167373475614  1.0000
  O   O29       1.0  0.08383716754052982  0.2958952065232268  0.4875007601400012  1.0000
  O   O30       1.0  0.9161998643739082  0.7041379153900706  0.5125047731748537  1.0000
  O   O31       1.0  0.985411080836812  0.5387968562162442  0.36157052287325797  1.0000
  O   O32       1.0  0.014607836749796422  0.46119994173022166  0.6384279169286202  1.0000
