data_image0
_chemical_formula_structural       Gd2Cu6H44C48N6Cl6O16
_chemical_formula_sum              "Gd2 Cu6 H44 C48 N6 Cl6 O16"
_cell_length_a       9.620672484463421
_cell_length_b       13.049506270475833
_cell_length_c       13.133
_cell_angle_alpha    97.4355281237321
_cell_angle_beta     98.32621317242118
_cell_angle_gamma    107.08546698738148

_space_group_name_H-M_alt    "P 1"
_space_group_IT_number       1

loop_
  _space_group_symop_operation_xyz
  'x, y, z'

loop_
  _atom_site_type_symbol
  _atom_site_label
  _atom_site_symmetry_multiplicity
  _atom_site_fract_x
  _atom_site_fract_y
  _atom_site_fract_z
  _atom_site_occupancy
  Gd  Gd1       1.0  0.7623909198925389  0.5103006878980239  0.5234766227175456  1.0000
  Gd  Gd2       1.0  0.23760437665697506  0.4897050590993217  0.47652224673704774  1.0000
  Cu  Cu1       1.0  0.1658335121633314  0.20407135829879047  0.7881699937409223  1.0000
  Cu  Cu2       1.0  0.8341754323336943  0.7959319428555389  0.21183000899324603  1.0000
  Cu  Cu3       1.0  0.0959952491910983  0.0080313331999022  0.10069058882888979  1.0000
  Cu  Cu4       1.0  0.9040000302265127  0.991969522111404  0.8993084112380528  1.0000
  Cu  Cu5       1.0  0.0539859054365621  0.2551454522629655  0.03673692579936019  1.0000
  Cu  Cu6       1.0  0.9460167274882991  0.7448554030483336  0.9632582856895553  1.0000
  H   H1        1.0  0.7510997058823321  0.6411565506446735  0.7273570358602512  1.0000
  H   H2        1.0  0.24890396897760783  0.35884185882360947  0.27264177885572843  1.0000
  H   H3        1.0  0.5875448535271417  0.5612997760095553  0.6838448540495463  1.0000
  H   H4        1.0  0.41245393041590017  0.4387018945827563  0.31615462261537164  1.0000
  H   H5        1.0  0.9163876474664365  0.5083807011265478  0.7383269663381782  1.0000
  H   H6        1.0  0.08359851333226938  0.49161607777971733  0.2616705422427046  1.0000
  H   H7        1.0  0.010116477899885028  0.4593676375480484  0.6660487127518734  1.0000
  H   H8        1.0  0.9898753055582361  0.5406348483252685  0.3339478418093051  1.0000
  H   H9        1.0  0.1413844474830626  0.835051571414155  0.7119072954645346  1.0000
  H   H10       1.0  0.8586076804314402  0.1649492838971511  0.28809593893234353  1.0000
  H   H11       1.0  0.3915243389173853  0.746919694558045  0.6572672704050005  1.0000
  H   H12       1.0  0.60846391431744  0.2530746385052041  0.3427354757222076  1.0000
  H   H13       1.0  0.5302263256405269  0.847041093903016  0.4738882430247528  1.0000
  H   H14       1.0  0.4697616002698339  0.1529597614082903  0.5261046468918167  1.0000
  H   H15       1.0  0.8269534741627851  0.8187956834156935  0.5682938516644782  1.0000
  H   H16       1.0  0.1730207695362438  0.1811978343665501  0.4317027348410889  1.0000
  H   H17       1.0  0.43859619074703454  0.28658187261167  0.7079454322549878  1.0000
  H   H18       1.0  0.5614155179669568  0.7134108298895612  0.2920542622931208  1.0000
  H   H19       1.0  0.7754747244758702  0.4441585703625676  0.9834964797278544  1.0000
  H   H20       1.0  0.22454225387520668  0.55583902382471  0.016496026991347897  1.0000
  H   H21       1.0  0.3138198331024142  0.2967957130672971  0.9972666266456685  1.0000
  H   H22       1.0  0.686202053297464  0.7032035116819912  0.002737270562569402  1.0000
  H   H23       1.0  0.7027588153425768  0.3850034110570562  0.7883344691862176  1.0000
  H   H24       1.0  0.2972525146512268  0.6149811386341071  0.21166109107281977  1.0000
  H   H25       1.0  0.9661634239235468  0.2908841104855782  0.676258111239143  1.0000
  H   H26       1.0  0.03385006703399541  0.7091175601067334  0.3237375954729557  1.0000
  H   H27       1.0  0.7301383064924707  0.21881163890525096  0.547138915438552  1.0000
  H   H28       1.0  0.2698636289536793  0.7811900316870606  0.4528647027435325  1.0000
  H   H29       1.0  0.7485599354135388  0.1406367889875639  0.9552647836751689  1.0000
  H   H30       1.0  0.2514311163020722  0.8593567287946797  0.044738915922572196  1.0000
  H   H31       1.0  0.48386022327370887  0.1372191310062405  0.9272810532055615  1.0000
  H   H32       1.0  0.5161322319652584  0.8627752020570013  0.07272213867355495  1.0000
  H   H33       1.0  0.6380761783245745  0.842788588170535  0.7561116956728354  1.0000
  H   H34       1.0  0.36191733598138137  0.1572081907357372  0.24388583153324817  1.0000
  H   H35       1.0  0.7905512512030343  0.519370689100839  0.15469635317132457  1.0000
  H   H36       1.0  0.2094608704949579  0.4806399495825531  0.8453110216443916  1.0000
  H   H37       1.0  0.47952710409957433  0.3633381335771873  0.15543381028948738  1.0000
  H   H38       1.0  0.5204850004665147  0.6366676134201583  0.8445630349695391  1.0000
  H   H39       1.0  0.2916952025911356  0.9822742003762243  0.8073301208187472  1.0000
  H   H40       1.0  0.7082937395564386  0.0177168715629961  0.1926768476921197  1.0000
  H   H41       1.0  0.6291402233374795  0.0169130044900996  0.4756821809446592  1.0000
  H   H42       1.0  0.370851904577016  0.9830878508211995  0.524325622096093  1.0000
  H   H43       1.0  0.002683342339437929  0.9820410300082187  0.6776938428134827  1.0000
  H   H44       1.0  0.9973136764919558  0.0179565641790518  0.32230492243122905  1.0000
  C   C1        1.0  0.5521127031953696  0.6865359067749921  0.48016930543560926  1.0000
  C   C2        1.0  0.4478899639932976  0.3134747319083928  0.5198378278789377  1.0000
  C   C3        1.0  0.19646245623784617  0.7833285137684101  0.6735029302822397  1.0000
  C   C4        1.0  0.8035300161330241  0.2166707109808854  0.3265001309845346  1.0000
  C   C5        1.0  0.34458926277834223  0.804784264029486  0.695755838356277  1.0000
  C   C6        1.0  0.6554042515276137  0.1952125148767863  0.3042485418156176  1.0000
  C   C7        1.0  0.6114883194267904  0.8067865941826611  0.4964513568129263  1.0000
  C   C8        1.0  0.3884947241326202  0.1932199680956899  0.5035493634325547  1.0000
  C   C9        1.0  0.7518378300126471  0.863911703780758  0.5442034936267746  1.0000
  C   C10       1.0  0.2481532474008148  0.1360891515305482  0.4557950606882527  1.0000
  C   C11       1.0  0.4732970259114353  0.313173077935808  0.7922178370878185  1.0000
  C   C12       1.0  0.526712926256863  0.6868179940034124  0.20777993857294055  1.0000
  C   C13       1.0  0.6600853638810946  0.4014011579507368  0.9464453865179648  1.0000
  C   C14       1.0  0.3399330094273907  0.598594805674523  0.05355010427168588  1.0000
  C   C15       1.0  0.403567007474976  0.3192118643546138  0.9537584565607702  1.0000
  C   C16       1.0  0.5964531223792093  0.6807857298326638  0.0462404759975286  1.0000
  C   C17       1.0  0.6208441685707199  0.3686839311400476  0.8382834880809469  1.0000
  C   C18       1.0  0.379168590644305  0.6313087713611836  0.16171403358320185  1.0000
  C   C19       1.0  0.918306807595215  0.2042009879789006  0.6455440784896851  1.0000
  C   C20       1.0  0.08169968287740662  0.7958014978944162  0.35445403620319377  1.0000
  C   C21       1.0  0.7858964450296639  0.1624194669324481  0.5728868836752453  1.0000
  C   C22       1.0  0.21410443134949728  0.8375797578168472  0.42711478477342263  1.0000
  C   C23       1.0  0.6609463042850976  0.0729211791086115  0.9039806916243762  1.0000
  C   C24       1.0  0.33904440297413174  0.9270739692356429  0.09602165822218466  1.0000
  C   C25       1.0  0.5140559494216106  0.0710655995366949  0.886900419264343  1.0000
  C   C26       1.0  0.4859344048152892  0.9289287335265541  0.11310254973881939  1.0000
  C   C27       1.0  0.4489195796360903  0.8992133713836168  0.7687228081227957  1.0000
  C   C28       1.0  0.5510718251018432  0.1007809616796322  0.23128103375898948  1.0000
  C   C29       1.0  0.5991837606207042  0.9069585409500647  0.7914732457231535  1.0000
  C   C30       1.0  0.400808703184218  0.09303823795620049  0.2085279772481741  1.0000
  C   C31       1.0  0.5486317167487158  0.3763940436231934  0.006597427875142585  1.0000
  C   C32       1.0  0.4513929681319411  0.6236043658450896  0.9933998083971716  1.0000
  C   C33       1.0  0.7070653166696773  0.492027794688255  0.29866998428321506  1.0000
  C   C34       1.0  0.2929334844052676  0.5079787675901031  0.701332407531943  1.0000
  C   C35       1.0  0.695172766774732  0.47318012836855416  0.18420892607238665  1.0000
  C   C36       1.0  0.3048358418318742  0.5268272491908093  0.8157915652060339  1.0000
  C   C37       1.0  0.5724796691816181  0.4035404553130917  0.12013335281841357  1.0000
  C   C38       1.0  0.42753837680239576  0.5964620305602253  0.879862180488999  1.0000
  C   C39       1.0  0.09418698381266212  0.6863182267461312  0.5990735205491049  1.0000
  C   C40       1.0  0.905804808211407  0.313686704970209  0.4009203036636322  1.0000
  C   C41       1.0  0.4069146392435812  0.9841118437659873  0.8192110545397708  1.0000
  C   C42       1.0  0.5930778245613411  0.015884935140285  0.1807947370754306  1.0000
  C   C43       1.0  0.8071173765989458  0.982415243990431  0.5725271989375855  1.0000
  C   C44       1.0  0.19288350834617057  0.0175864266018806  0.4274778306878062  1.0000
  C   C45       1.0  0.7305086619660203  0.051004795078583194  0.5349241382510712  1.0000
  C   C46       1.0  0.26949081088977783  0.9489936143896998  0.4650749921536388  1.0000
  C   C47       1.0  0.9398593990435772  0.0315758334009004  0.6453580330569649  1.0000
  C   C48       1.0  0.060141468769629114  0.9684209455053718  0.35463951277432665  1.0000
  N   N1        1.0  0.7033677893010263  0.9911126617730517  0.8579081501374759  1.0000
  N   N2        1.0  0.2966239684592367  0.0088824865712027  0.1420920268251322  1.0000
  N   N3        1.0  0.9949681031877233  0.1400921812748948  0.6811976287330879  1.0000
  N   N4        1.0  0.005038723175324869  0.8599062281933882  0.3188015202968232  1.0000
  N   N5        1.0  0.3652669665841444  0.2883673380169895  0.8490187531717195  1.0000
  N   N6        1.0  0.6347461627851203  0.7116310714512935  0.150984871689289  1.0000
  Cl  Cl1       1.0  0.1414000981687806  0.0693478024549563  0.9140465571709341  1.0000
  Cl  Cl2       1.0  0.8585958958594376  0.9306571292613839  0.08595761152211168  1.0000
  Cl  Cl3       1.0  0.1113027714622632  0.2053904829681059  0.1801891569456018  1.0000
  Cl  Cl4       1.0  0.8886960039148305  0.7946087417811823  0.8198061971019399  1.0000
  Cl  Cl5       1.0  0.005368009023477799  0.3259314104142632  0.9061244862484088  1.0000
  Cl  Cl6       1.0  0.9946395148182745  0.6740661837730144  0.09386854041026985  1.0000
  O   O1        1.0  0.6937305800801212  0.5657080004143751  0.6918794203120129  1.0000
  O   O2        1.0  0.3062667832076471  0.43428796321088464  0.308120694683879  1.0000
  O   O3        1.0  0.41182801432800187  0.6449198877729572  0.4497750590611886  1.0000
  O   O4        1.0  0.588174239876672  0.355072814728274  0.5502205867825367  1.0000
  O   O5        1.0  0.8306284672303762  0.5552365311605385  0.3557351199360283  1.0000
  O   O6        1.0  0.16936439242663684  0.444773292241841  0.6442708681526738  1.0000
  O   O7        1.0  0.6005030494819508  0.4454948159330314  0.3421291768717296  1.0000
  O   O8        1.0  0.3994922641994734  0.5545158227503535  0.6578710848518057  1.0000
  O   O9        1.0  0.9094824116274438  0.465504257687698  0.6704157971324705  1.0000
  O   O10       1.0  0.0905079768732691  0.5344998587476297  0.3295785347988911  1.0000
  O   O11       1.0  0.956140374138407  0.6740580309629465  0.5903065825688499  1.0000
  O   O12       1.0  0.0438528299749876  0.3259501618774223  0.4096840035768281  1.0000
  O   O13       1.0  0.14416949711174  0.6198361370307595  0.5479444886914209  1.0000
  O   O14       1.0  0.855825799437774  0.38016960996658616  0.4520498121192985  1.0000
  O   O15       1.0  0.6391736199183171  0.6320286644903632  0.49853228235051  1.0000
  O   O16       1.0  0.3608420405689259  0.36799257284612  0.5014897752107572  1.0000
