data_image0
_chemical_formula_structural       Zn8H36C36O26
_chemical_formula_sum              "Zn8 H36 C36 O26"
_cell_length_a       12.24024829255777
_cell_length_b       13.719552694585776
_cell_length_c       15.078382234475407
_cell_angle_alpha    69.66611701843378
_cell_angle_beta     70.88421971771285
_cell_angle_gamma    68.19491740312331

_space_group_name_H-M_alt    "P 1"
_space_group_IT_number       1

loop_
  _space_group_symop_operation_xyz
  'x, y, z'

loop_
  _atom_site_type_symbol
  _atom_site_label
  _atom_site_symmetry_multiplicity
  _atom_site_fract_x
  _atom_site_fract_y
  _atom_site_fract_z
  _atom_site_occupancy
  Zn  Zn1       1.0  0.9373606634185452  0.07610149934143351  0.9215370783381405  1.0000
  Zn  Zn2       1.0  0.18509247129284745  0.05287428021637909  0.962716533132479  1.0000
  Zn  Zn3       1.0  0.944972596952887  0.0887915956581153  0.12955160948318686  1.0000
  Zn  Zn4       1.0  0.985545925048257  0.283006335285755  0.9399529837086221  1.0000
  Zn  Zn5       1.0  0.6125562874948614  0.7136218715964375  0.5131487586762447  1.0000
  Zn  Zn6       1.0  0.3487534444997564  0.6904076781256308  0.554942422717083  1.0000
  Zn  Zn7       1.0  0.580193838395637  0.4795811599921862  0.5507099456607136  1.0000
  Zn  Zn8       1.0  0.5406584781204132  0.6630768316883291  0.3535349401305368  1.0000
  H   H1        1.0  0.18383064936848834  0.8127791869098856  0.7782846688304731  1.0000
  H   H2        1.0  0.29796004428991574  0.6603308115135673  0.8872579474049402  1.0000
  H   H3        1.0  0.260596455684002  0.746021009872891  0.9654831802513045  1.0000
  H   H4        1.0  0.4995395545468426  0.6954899520762085  0.823090858484136  1.0000
  H   H5        1.0  0.44189412723398663  0.8094884315026576  0.8738166610527571  1.0000
  H   H6        1.0  0.375432152668992  0.9216484893904635  0.7261594519783612  1.0000
  H   H7        1.0  0.6453183825665295  0.9252841274870107  0.12174637480035956  1.0000
  H   H8        1.0  0.48158729784149296  0.0900386373649056  0.07268018310949037  1.0000
  H   H9        1.0  0.530843589454598  0.16724366025790974  0.11784651893835026  1.0000
  H   H10       1.0  0.4119142000743353  0.9853755610931217  0.2421968479144638  1.0000
  H   H11       1.0  0.4034029825001895  0.0984018298507507  0.28053065187722137  1.0000
  H   H12       1.0  0.6215854025491083  0.0213032641486208  0.285640229315348  1.0000
  H   H13       1.0  0.9114006580470646  0.29702519900273217  0.6273361559778722  1.0000
  H   H14       1.0  0.13092277795171733  0.2837328614574233  0.5726223252331906  1.0000
  H   H15       1.0  0.1184000806190681  0.3414004289075551  0.6666203328429392  1.0000
  H   H16       1.0  0.017081813749520315  0.4659821834764699  0.48287741491621017  1.0000
  H   H17       1.0  0.06062225857763086  0.5229982744045714  0.5512052035076496  1.0000
  H   H18       1.0  0.8847994382574599  0.49835425709219544  0.6870385066527476  1.0000
  H   H19       1.0  0.29317600131309973  0.7473265691902566  0.18777615957529303  1.0000
  H   H20       1.0  0.14957192345212186  0.6579557231170838  0.1872944660753433  1.0000
  H   H21       1.0  0.023745383955237308  0.7648307672703683  0.22708424046722797  1.0000
  H   H22       1.0  0.19863010704506237  0.5908697979901872  0.35126348526885215  1.0000
  H   H23       1.0  0.044460829585347035  0.6602919256376367  0.39617767736196197  1.0000
  H   H24       1.0  0.0963804932897716  0.8314599786659186  0.35457843326716454  1.0000
  H   H25       1.0  0.4234084341682093  0.26552674901735424  0.7949324363371418  1.0000
  H   H26       1.0  0.4956069206422526  0.2549776878585988  0.9325913597608634  1.0000
  H   H27       1.0  0.3444235305567745  0.29717563205974784  0.0003088818515522026  1.0000
  H   H28       1.0  0.48198620329527125  0.44473283274360415  0.8345336427545933  1.0000
  H   H29       1.0  0.348765341536712  0.48806217099374294  0.9228322771579371  1.0000
  H   H30       1.0  0.2212992286650888  0.4693045278965684  0.8352853795040361  1.0000
  H   H31       1.0  0.7678740586180341  0.4740468116786474  0.1599481741218014  1.0000
  H   H32       1.0  0.918868403358097  0.49985971093545334  0.2150806129012891  1.0000
  H   H33       1.0  0.026403221017083946  0.3890008882416325  0.16839969953638703  1.0000
  H   H34       1.0  0.9113444342784901  0.3678984367019709  0.3802568408501372  1.0000
  H   H35       1.0  0.9669276045234555  0.2567124959965312  0.3259172409014896  1.0000
  H   H36       1.0  0.7584452757483006  0.2800522008970034  0.32964152614184183  1.0000
  C   C1        1.0  0.16255399339287654  0.9306465633439273  0.8507046046956505  1.0000
  C   C2        1.0  0.2371563937702916  0.8336749944116447  0.8108802995896056  1.0000
  C   C3        1.0  0.29814777286939886  0.7388761014759881  0.8904581155466288  1.0000
  C   C4        1.0  0.4202903485485195  0.763924381535972  0.8381274887255473  1.0000
  C   C5        1.0  0.3649071600281246  0.8396095069814252  0.7497843831122071  1.0000
  C   C6        1.0  0.41008361467017823  0.795978802955773  0.6611838873056115  1.0000
  C   C7        1.0  0.7551002872706292  0.025233410136493703  0.10039604019645765  1.0000
  C   C8        1.0  0.6391600966974523  0.9945410956940748  0.1456654037559061  1.0000
  C   C9        1.0  0.5204121027746709  0.08717882592218729  0.1297698474740017  1.0000
  C   C10       1.0  0.4607415913626696  0.040861384041143395  0.2365968561584637  1.0000
  C   C11       1.0  0.5894926851363849  0.976620150488408  0.25663217708823544  1.0000
  C   C12       1.0  0.6039531211081768  0.8620917906586956  0.3196065398024571  1.0000
  C   C13       1.0  0.9211627175738075  0.2829107627132856  0.7706759417316248  1.0000
  C   C14       1.0  0.9408409415970738  0.3365719445701957  0.6634606419369647  1.0000
  C   C15       1.0  0.07288933914097843  0.3437774527929633  0.6137974551478464  1.0000
  C   C16       1.0  0.020432672270111134  0.46153651468054585  0.5561294409620245  1.0000
  C   C17       1.0  0.8965775514782309  0.46165147945139035  0.6289733155055898  1.0000
  C   C18       1.0  0.7844842379656499  0.5132029028945766  0.5892700680341961  1.0000
  C   C19       1.0  0.1597940590525155  0.9010558212162111  0.15612383300303637  1.0000
  C   C20       1.0  0.19820533027671428  0.7864613812790253  0.21702926653512822  1.0000
  C   C21       1.0  0.11606723718409746  0.7147243783198504  0.23309933829487767  1.0000
  C   C22       1.0  0.1266836594361749  0.6681270380673469  0.34018894706990477  1.0000
  C   C23       1.0  0.17126250194999676  0.7658852851091779  0.3285109607364448  1.0000
  C   C24       1.0  0.2747851950448138  0.7369259013816176  0.37485939310585803  1.0000
  C   C25       1.0  0.2522161046026667  0.25251252455996814  0.8873955900275804  1.0000
  C   C26       1.0  0.3522104585563923  0.30552670179117314  0.84849785844893  1.0000
  C   C27       1.0  0.4049007223673158  0.3099235251901717  0.9278691891087263  1.0000
  C   C28       1.0  0.3946589408628683  0.4311545485198777  0.8768724578895188  1.0000
  C   C29       1.0  0.3180120485660326  0.4306581133469863  0.8116131289672667  1.0000
  C   C30       1.0  0.36150459272658964  0.48090162696873046  0.7054437374256751  1.0000
  C   C31       1.0  0.8728933340828179  0.3176549582391316  0.13592048161149256  1.0000
  C   C32       1.0  0.8283244293800678  0.3992810601254959  0.1953523304182171  1.0000
  C   C33       1.0  0.9375018261821637  0.41498648068473176  0.21589598234088916  1.0000
  C   C34       1.0  0.9106985027015213  0.34125147944318707  0.31977154665005975  1.0000
  C   C35       1.0  0.7837239502823866  0.35541143114686236  0.3060182185745786  1.0000
  C   C36       1.0  0.6868376791386055  0.4373473706210547  0.35737903736009724  1.0000
  O   O1        1.0  0.010912985744106212  0.1264370500259417  0.989837868495407  1.0000
  O   O2        1.0  0.21832296927978237  0.9923598708783602  0.852390877013136  1.0000
  O   O3        1.0  0.049442612727588764  0.9422370448099003  0.8841126107553448  1.0000
  O   O4        1.0  0.33244040609037034  0.7994787107164498  0.6197056764816297  1.0000
  O   O5        1.0  0.5246616123746934  0.7600445488974614  0.6336325060445844  1.0000
  O   O6        1.0  0.8081361776651407  0.0319513148821997  0.15721017413743255  1.0000
  O   O7        1.0  0.7883787784859707  0.044432240778334596  0.00798932128105881  1.0000
  O   O8        1.0  0.5956283369677778  0.793537430885209  0.28422661297255997  1.0000
  O   O9        1.0  0.6197097065824693  0.8432766024435168  0.40431671935257907  1.0000
  O   O10       1.0  0.9151983536874584  0.3381173214604232  0.826193101445668  1.0000
  O   O11       1.0  0.9176602739105918  0.1849808158315867  0.7972224417343555  1.0000
  O   O12       1.0  0.7154448936189726  0.4546802679190023  0.6083784989445107  1.0000
  O   O13       1.0  0.7685312844967455  0.6119710573518945  0.5389107502767774  1.0000
  O   O14       1.0  0.06492779142550392  0.9665719542340553  0.19421944408093597  1.0000
  O   O15       1.0  0.22322010811352302  0.9224631096963803  0.06951260136587928  1.0000
  O   O16       1.0  0.3811441438653276  0.7033408307328061  0.3250203944455022  1.0000
  O   O17       1.0  0.24619686532010124  0.7444089456416663  0.46224267479830433  1.0000
  O   O18       1.0  0.1448011782998435  0.3127896671975563  0.8842077997610646  1.0000
  O   O19       1.0  0.28497007729686885  0.14965503419191611  0.9236413212291837  1.0000
  O   O20       1.0  0.459464842611375  0.4250126789283897  0.6600993770962091  1.0000
  O   O21       1.0  0.3004843469793813  0.5774450290077341  0.6707105471789918  1.0000
  O   O22       1.0  0.8878107292893774  0.2173460658608946  0.1809376756115312  1.0000
  O   O23       1.0  0.8965753380356889  0.3569677383815701  0.04393156219632729  1.0000
  O   O24       1.0  0.6533641798626777  0.5355850184481595  0.30769789993703983  1.0000
  O   O25       1.0  0.6494378306110774  0.4010348916124968  0.44856472559701654  1.0000
  O   O26       1.0  0.5195503658443813  0.6353070550910614  0.49325574175134795  1.0000
