data_image0
_chemical_formula_structural       Zn4H42C76N4Cl12O16
_chemical_formula_sum              "Zn4 H42 C76 N4 Cl12 O16"
_cell_length_a       11.015123748840765
_cell_length_b       14.090070275308328
_cell_length_c       26.19928601789605
_cell_angle_alpha    90.72725267028304
_cell_angle_beta     89.69109550937328
_cell_angle_gamma    90.25781572917018

_space_group_name_H-M_alt    "P 1"
_space_group_IT_number       1

loop_
  _space_group_symop_operation_xyz
  'x, y, z'

loop_
  _atom_site_type_symbol
  _atom_site_label
  _atom_site_symmetry_multiplicity
  _atom_site_fract_x
  _atom_site_fract_y
  _atom_site_fract_z
  _atom_site_occupancy
  Zn  Zn1       1.0  0.54230851841573  0.38439378893682635  0.4998118984217894  1.0000
  Zn  Zn2       1.0  0.5378451298341744  0.5921742066941108  0.5057348536740631  1.0000
  Zn  Zn3       1.0  0.4647620631403058  0.6201079643053691  0.0848861040553359  1.0000
  Zn  Zn4       1.0  0.4531877304563636  0.41451046571472727  0.08300271361650856  1.0000
  H   H1        1.0  0.7169542482511843  0.04112904645656101  0.479373927950469  1.0000
  H   H2        1.0  0.39871424939319416  0.930105078832263  0.5632748807792467  1.0000
  H   H3        1.0  0.6267419254645644  0.7336975423105161  0.44067187114054446  1.0000
  H   H4        1.0  0.6330217566920168  0.9099034653998005  0.4308563052257595  1.0000
  H   H5        1.0  0.3624807216275414  0.24338130158929527  0.5090287623862081  1.0000
  H   H6        1.0  0.3336441424856673  0.0675544588397088  0.5116887329599393  1.0000
  H   H7        1.0  0.6227807168332475  0.38678048603109266  0.18690795899441065  1.0000
  H   H8        1.0  0.665883498606064  0.35942940041794474  0.37466974991123436  1.0000
  H   H9        1.0  0.4450746936770145  0.35126700245780296  0.7632180185186567  1.0000
  H   H10       1.0  0.4967630917835706  0.6522084333551704  0.8207533700538007  1.0000
  H   H11       1.0  0.5192335050885646  0.3706839962197749  0.9301623836634645  1.0000
  H   H12       1.0  0.5412256749673289  0.3507205830035077  0.836730259467451  1.0000
  H   H13       1.0  0.6135894640531703  0.610638659860584  0.6591110127086279  1.0000
  H   H14       1.0  0.6121160804163636  0.6274254363752408  0.7532781432766168  1.0000
  H   H15       1.0  0.820711435825807  0.5514298303787586  0.5974437844108846  1.0000
  H   H16       1.0  0.27007813868423364  0.5118620323985186  0.5948333847277281  1.0000
  H   H17       1.0  0.6249441290901885  0.9604232700604529  0.12549445960031844  1.0000
  H   H18       1.0  0.35102616164044786  0.07787992486422012  0.012133136222281796  1.0000
  H   H19       1.0  0.5327798325284404  0.26833426964633855  0.14945236276884086  1.0000
  H   H20       1.0  0.5435966811792241  0.09361287236895785  0.155515172802474  1.0000
  H   H21       1.0  0.3117572574793214  0.7622451438885707  0.04510661189087978  1.0000
  H   H22       1.0  0.28863514066867413  0.9376821222158827  0.0417364051606768  1.0000
  H   H23       1.0  0.7365605742857256  0.42919579652655687  0.9981173318690818  1.0000
  H   H24       1.0  0.18454023520263968  0.4793027042525041  0.9903450941468319  1.0000
  H   H25       1.0  0.7642392715699701  0.27445895838081213  0.4427199306335651  1.0000
  H   H26       1.0  0.7910766164198081  0.27528710132072126  0.5086208223351745  1.0000
  H   H27       1.0  0.8369168973982968  0.17512225043965665  0.4704786638059628  1.0000
  H   H28       1.0  0.3064397462751813  0.6960485861194174  0.5599761774741053  1.0000
  H   H29       1.0  0.4346984112113077  0.6897572530411725  0.5993973301908964  1.0000
  H   H30       1.0  0.335323397729681  0.7898446015526233  0.6049289407407625  1.0000
  H   H31       1.0  0.4022482681931904  0.25954547162509567  0.6942941345601027  1.0000
  H   H32       1.0  0.37592706886756844  0.31633067289161704  0.6348503412461494  1.0000
  H   H33       1.0  0.5172414779218498  0.26328535278816645  0.6459218200605861  1.0000
  H   H34       1.0  0.3854425348690995  0.7122651064679247  0.9360014020974244  1.0000
  H   H35       1.0  0.5420404639323024  0.7193943720064979  0.947506909094251  1.0000
  H   H36       1.0  0.4846499132813591  0.7533200158609431  0.8866939777576162  1.0000
  H   H37       1.0  0.6253549838001432  0.7232570734327911  0.1641387403143284  1.0000
  H   H38       1.0  0.7115605940823642  0.7267087727819759  0.10768457684471136  1.0000
  H   H39       1.0  0.7227465985883583  0.8231407304822869  0.15272853128063693  1.0000
  H   H40       1.0  0.23797547612914371  0.3018832349600304  0.018509364922500996  1.0000
  H   H41       1.0  0.3755194287740905  0.32398380542530003  0.9863233859406005  1.0000
  H   H42       1.0  0.2912837110715997  0.21788654167779956  0.9719443463531475  1.0000
  C   C1        1.0  0.5399860687001663  0.4682296306158167  0.6010546408755103  1.0000
  C   C2        1.0  0.3033094066767532  0.481003197775948  0.5015743833240973  1.0000
  C   C3        1.0  0.5327203828337302  0.4962729110834729  0.4046334896545785  1.0000
  C   C4        1.0  0.7746060664640807  0.5129086571329539  0.5033448114397456  1.0000
  C   C5        1.0  0.4782661337878693  0.5237174510057018  0.9854506223070342  1.0000
  C   C6        1.0  0.2238109175670004  0.5264038038118174  0.08281972181251258  1.0000
  C   C7        1.0  0.46428365225485635  0.5164641685126624  0.18294756380998214  1.0000
  C   C8        1.0  0.6941606716093034  0.5010259268963538  0.08668470553556057  1.0000
  C   C9        1.0  0.6459049867547151  0.1824356887116069  0.4853387858019075  1.0000
  C   C10       1.0  0.6355931937036416  0.08360004780752213  0.4855750354401066  1.0000
  C   C11       1.0  0.4498029964799883  0.7898396159814568  0.538270717611766  1.0000
  C   C12       1.0  0.44948509644231655  0.8888583957315891  0.5349445335575778  1.0000
  C   C13       1.0  0.5786273834038128  0.7806087901542896  0.4671804689625886  1.0000
  C   C14       1.0  0.581797937427332  0.8783696772251092  0.46205853441595207  1.0000
  C   C15       1.0  0.43850397024063886  0.19517842130893112  0.502915350258469  1.0000
  C   C16       1.0  0.4233426281741899  0.09743526552053083  0.5044287566066143  1.0000
  C   C17       1.0  0.5242795647803931  0.03926958613730852  0.49549420009079614  1.0000
  C   C18       1.0  0.5172995921133818  0.9347918839172638  0.49723525158056237  1.0000
  C   C19       1.0  0.4834935964986613  0.5134776829224137  0.23995132266892222  1.0000
  C   C20       1.0  0.5619225212413497  0.4430505816668245  0.2603421590844447  1.0000
  C   C21       1.0  0.4267491006249671  0.5774323617462187  0.2728752861706027  1.0000
  C   C22       1.0  0.6281188096282265  0.38001677255530103  0.22812651652572666  1.0000
  C   C23       1.0  0.7024852819333559  0.3114505520837341  0.24792354300644345  1.0000
  C   C24       1.0  0.5164570989694823  0.5027603608469705  0.347632111175102  1.0000
  C   C25       1.0  0.44334674437705235  0.572284431770406  0.3268112610848916  1.0000
  C   C26       1.0  0.5772881814489564  0.4369058811176033  0.3144742515006198  1.0000
  C   C27       1.0  0.6549547596423366  0.3658550417307965  0.3337089122008407  1.0000
  C   C28       1.0  0.7155499212107017  0.30381735392347753  0.3016153756322096  1.0000
  C   C29       1.0  0.5363695672384168  0.4706408787559513  0.6580836530914735  1.0000
  C   C30       1.0  0.4935360993964223  0.5211403813517635  0.928672852255907  1.0000
  C   C31       1.0  0.4908489525356217  0.3948671881232429  0.687515350832058  1.0000
  C   C32       1.0  0.48580793523049687  0.4075865863408339  0.7405167027540855  1.0000
  C   C33       1.0  0.4900794121764208  0.6027548922536569  0.8976354391751398  1.0000
  C   C34       1.0  0.5022018177936475  0.589704406056406  0.8448080968275489  1.0000
  C   C35       1.0  0.5120363305727551  0.43190935709320405  0.9055182429414896  1.0000
  C   C36       1.0  0.5239566807462523  0.4208817212656656  0.8531314598313312  1.0000
  C   C37       1.0  0.5776519431717019  0.5537019289863425  0.6825802193594723  1.0000
  C   C38       1.0  0.5752534006780508  0.5634348962071841  0.7352980659677966  1.0000
  C   C39       1.0  0.5270583805028507  0.490421348671852  0.7654155833971428  1.0000
  C   C40       1.0  0.5179305127955018  0.5003219555791533  0.8214445634887111  1.0000
  C   C41       1.0  0.9112757736700772  0.5061918762751249  0.5028657727772055  1.0000
  C   C42       1.0  0.977034482321372  0.5190765657655093  0.5492110549057826  1.0000
  C   C43       1.0  0.9725503266804267  0.4837959076730272  0.458008506829671  1.0000
  C   C44       1.0  0.9187269470796834  0.5417038744171594  0.596190982290487  1.0000
  C   C45       1.0  0.9844811761032803  0.5529172347276019  0.6406251742014673  1.0000
  C   C46       1.0  0.1666289329954935  0.4853170632864164  0.5020145894724946  1.0000
  C   C47       1.0  0.10111106937951322  0.4730821334370392  0.45756593498921905  1.0000
  C   C48       1.0  0.10622491495974631  0.5079978021988226  0.5486689896834844  1.0000
  C   C49       1.0  0.17173678213094948  0.5200015649379994  0.5947386480910877  1.0000
  C   C50       1.0  0.11299357285405161  0.5418007786125617  0.6399781756325138  1.0000
  C   C51       1.0  0.5588372634688383  0.8203292845380618  0.10884067851241497  1.0000
  C   C52       1.0  0.5521230747647436  0.9193343389059695  0.10775290295885037  1.0000
  C   C53       1.0  0.3853691886007553  0.21649984227112642  0.04349956362838009  1.0000
  C   C54       1.0  0.3910140812675635  0.11740516680773541  0.04392264580749839  1.0000
  C   C55       1.0  0.49338072601600647  0.223228908391512  0.11981527211592176  1.0000
  C   C56       1.0  0.499924331111309  0.12524902433061413  0.12269991922045156  1.0000
  C   C57       1.0  0.37898969898611057  0.8095333853370194  0.06233714960174548  1.0000
  C   C58       1.0  0.3672939237976394  0.9073740388962223  0.060386840150933076  1.0000
  C   C59       1.0  0.45577444910066583  0.9649815099992057  0.08377450053980336  1.0000
  C   C60       1.0  0.4487347913012129  0.06966115343296052  0.08347975070287107  1.0000
  C   C61       1.0  0.8310542966483895  0.5020596281488495  0.08623214690659607  1.0000
  C   C62       1.0  0.8952528502858214  0.4774526308918256  0.04067491568955008  1.0000
  C   C63       1.0  0.8937437661436788  0.5326823332373537  0.12896460689280786  1.0000
  C   C64       1.0  0.8345700391531992  0.4406439033161434  0.997039294678913  1.0000
  C   C65       1.0  0.8984838733391527  0.41715761799409995  0.9532169039722616  1.0000
  C   C66       1.0  0.08699425751623119  0.5219557197557095  0.08358879253383115  1.0000
  C   C67       1.0  0.0225732791237547  0.5415432826044723  0.12802899659230596  1.0000
  C   C68       1.0  0.024390758287765397  0.48956228992007317  0.039049291982770684  1.0000
  C   C69       1.0  0.08686310796534968  0.46843933724464665  0.992875051237078  1.0000
  C   C70       1.0  0.026188373118898794  0.4327519376233654  0.9508879405915562  1.0000
  C   C71       1.0  0.7663048522006976  0.22878086469308564  0.47635399510649973  1.0000
  C   C72       1.0  0.3777461947204017  0.7393769635796732  0.5782196405856508  1.0000
  C   C73       1.0  0.4437928867349328  0.30348874147417604  0.6645575728301123  1.0000
  C   C74       1.0  0.47480473008353397  0.7024935166289484  0.9179205583132198  1.0000
  C   C75       1.0  0.6608369731037628  0.7715427197339795  0.13493845725114534  1.0000
  C   C76       1.0  0.31912264246899713  0.26717946221951655  0.0024210757567288996  1.0000
  N   N1        1.0  0.5467249196620259  0.23721211765613506  0.4939042142017198  1.0000
  N   N2        1.0  0.5161952908322718  0.7373203583054819  0.5047114008631721  1.0000
  N   N3        1.0  0.4717578086414775  0.7665873395789975  0.08598607514038287  1.0000
  N   N4        1.0  0.4387692573560287  0.2683663190683064  0.08122137156136938  1.0000
  Cl  Cl1       1.0  0.36641926386501206  0.6518776825044343  0.3652964933533126  1.0000
  Cl  Cl2       1.0  0.3325012612601626  0.6636738905985243  0.24964934477668513  1.0000
  Cl  Cl3       1.0  0.7797893355118504  0.23592990254690707  0.20686518458649764  1.0000
  Cl  Cl4       1.0  0.807546226326977  0.21797808173062094  0.32720869668211344  1.0000
  Cl  Cl5       1.0  0.17570254964537207  0.4452871982014984  0.4014700447401934  1.0000
  Cl  Cl6       1.0  0.893962526884046  0.47080717126969085  0.4016170398767257  1.0000
  Cl  Cl7       1.0  0.9100141349381872  0.5803567262717241  0.6968962618874952  1.0000
  Cl  Cl8       1.0  0.1964992039642226  0.5550199017396978  0.6950696605437655  1.0000
  Cl  Cl9       1.0  0.0974359972661176  0.5735174168274925  0.18304368280495  1.0000
  Cl  Cl10      1.0  0.8149472107872525  0.5601669818462086  0.18423619255801774  1.0000
  Cl  Cl11      1.0  0.8234813165368636  0.36849760591989883  0.9015666631122767  1.0000
  Cl  Cl12      1.0  0.1071998474767142  0.40676183014982575  0.8959816093117607  1.0000
  O   O1        1.0  0.5532227395894295  0.38896951847952727  0.5779593139250847  1.0000
  O   O2        1.0  0.5289691900871389  0.5486711687544671  0.5793566899168849  1.0000
  O   O3        1.0  0.355676439051912  0.5604444197139034  0.4956139795902954  1.0000
  O   O4        1.0  0.3531975041523836  0.4014152652652427  0.5086814521502914  1.0000
  O   O5        1.0  0.5640042995941456  0.5714004422559144  0.42825198046823215  1.0000
  O   O6        1.0  0.5147013622210251  0.4151944931158981  0.4242433571006145  1.0000
  O   O7        1.0  0.7189084152139316  0.4346910806266636  0.49657545011215365  1.0000
  O   O8        1.0  0.727509729689082  0.5936734153272598  0.5112193293937465  1.0000
  O   O9        1.0  0.44693300524627233  0.60118552774604  0.0073177425962711986  1.0000
  O   O10       1.0  0.49688732254626433  0.44571755410205344  0.0087730108480173  1.0000
  O   O11       1.0  0.27490007696413693  0.4472964200719007  0.07325827071184678  1.0000
  O   O12       1.0  0.2759515211867978  0.6054547126051447  0.09081202966167007  1.0000
  O   O13       1.0  0.4295532953946264  0.4399509193873001  0.161321287475829  1.0000
  O   O14       1.0  0.48742055309116245  0.5945041617455333  0.16117965237258855  1.0000
  O   O15       1.0  0.6458659788101072  0.5790859744825737  0.07473940735316377  1.0000
  O   O16       1.0  0.6399525326547816  0.4242808374902865  0.09786325623132797  1.0000
