data_image0
_chemical_formula_structural       Zn16H40C104S16Br8O52
_chemical_formula_sum              "Zn16 H40 C104 S16 Br8 O52"
_cell_length_a       19.68859253414536
_cell_length_b       19.691884791384236
_cell_length_c       33.399317536054056
_cell_angle_alpha    79.11331784896734
_cell_angle_beta     79.11892386813395
_cell_angle_gamma    63.89787498456521

_space_group_name_H-M_alt    "P 1"
_space_group_IT_number       1

loop_
  _space_group_symop_operation_xyz
  'x, y, z'

loop_
  _atom_site_type_symbol
  _atom_site_label
  _atom_site_symmetry_multiplicity
  _atom_site_fract_x
  _atom_site_fract_y
  _atom_site_fract_z
  _atom_site_occupancy
  Zn  Zn1       1.0  0.055925081711450296  0.3995863521147172  0.47788019252185865  1.0000
  Zn  Zn2       1.0  0.9847085262197482  0.4835110945569239  0.5599488280461172  1.0000
  Zn  Zn3       1.0  0.058789207172289124  0.560466430693026  0.48159478729728983  1.0000
  Zn  Zn4       1.0  0.9008496873442271  0.5559718751395765  0.4796551196121327  1.0000
  Zn  Zn5       1.0  0.69414904469361  0.34996987654121636  0.2718581228938318  1.0000
  Zn  Zn6       1.0  0.6887368567837199  0.1895298434269322  0.26657105244684226  1.0000
  Zn  Zn7       1.0  0.7688080011216201  0.2674208621993586  0.19044303735970655  1.0000
  Zn  Zn8       1.0  0.8474001472857964  0.193010886166249  0.271334510335727  1.0000
  Zn  Zn9       1.0  0.26677575549005894  0.7663794889982823  0.6889730677070317  1.0000
  Zn  Zn10      1.0  0.34910844902482546  0.696307618791181  0.7714619243461698  1.0000
  Zn  Zn11      1.0  0.1921183461437863  0.8490650640667214  0.7708782460062121  1.0000
  Zn  Zn12      1.0  0.1916860268679486  0.6893466916834897  0.7680129273448131  1.0000
  Zn  Zn13      1.0  0.5601189936708906  0.061204359231311345  0.9834730104983646  1.0000
  Zn  Zn14      1.0  0.4005833290261194  0.0553577239992507  0.9776758664840911  1.0000
  Zn  Zn15      1.0  0.5571239661383913  0.9016965797107305  0.9790973353661412  1.0000
  Zn  Zn16      1.0  0.48133239377630604  0.9823076015393754  0.059773607563940276  1.0000
  H   H1        1.0  0.7501536465329366  0.447953159382301  0.34893248488413775  1.0000
  H   H2        1.0  0.9997968185636807  0.3023615850791118  0.40054213946366707  1.0000
  H   H3        1.0  0.200501476291663  0.7000126089772535  0.6014236921056478  1.0000
  H   H4        1.0  0.049301313723852005  0.5500446125274152  0.6484919526287739  1.0000
  H   H5        1.0  0.46367981393544977  0.23910897997889433  0.3410739178261578  1.0000
  H   H6        1.0  0.4796097697038633  0.7026491149781221  0.6011014958675672  1.0000
  H   H7        1.0  0.2032435528700205  0.9791545803884388  0.6008390455785672  1.0000
  H   H8        1.0  0.9484518472276948  0.9706015821083441  0.347693637086408  1.0000
  H   H9        1.0  0.6482242066280152  0.1488353589861332  0.04962624432284458  1.0000
  H   H10       1.0  0.6018093206411166  0.10133340749909082  0.20028083164562094  1.0000
  H   H11       1.0  0.5465104307545373  0.7714441511486004  0.14846317955134936  1.0000
  H   H12       1.0  0.16159651162006136  0.14239550424431965  0.03998624753884879  1.0000
  H   H13       1.0  0.302369913824201  0.9994598363335572  0.9009130308663412  1.0000
  H   H14       1.0  0.4480392793875083  0.7501069395125908  0.8490874931983255  1.0000
  H   H15       1.0  0.30034630519462274  0.2803735271143069  0.9020502085454607  1.0000
  H   H16       1.0  0.7868313197218341  0.011287343028378515  0.9087434456643063  1.0000
  H   H17       1.0  0.23189751495716143  0.5755861422578761  0.39888984102169894  1.0000
  H   H18       1.0  0.3312786438212285  0.550625874027297  0.39689479360230706  1.0000
  H   H19       1.0  0.2762285858526567  0.5358286038617094  0.4439527248212442  1.0000
  H   H20       1.0  0.8210396275651419  0.47661351457811924  0.6542239976918152  1.0000
  H   H21       1.0  0.7571032276026912  0.5365269947767288  0.6916055008816925  1.0000
  H   H22       1.0  0.8240502861722447  0.5636619900297932  0.6565808504932986  1.0000
  H   H23       1.0  0.06424504694962253  0.3231485827595435  0.6566941505623801  1.0000
  H   H24       1.0  0.036927003374792405  0.2560431704242703  0.6914139515194576  1.0000
  H   H25       1.0  0.9770983514642994  0.3204743941839467  0.6541220141262724  1.0000
  H   H26       1.0  0.7975965170770039  0.7220291445681823  0.3898708340536458  1.0000
  H   H27       1.0  0.7313839899668578  0.8199726855245758  0.3859659748864245  1.0000
  H   H28       1.0  0.7574255031454058  0.7672263195995157  0.43464246691023317  1.0000
  H   H29       1.0  0.7728899868198695  0.4293720869416191  0.09625033032300218  1.0000
  H   H30       1.0  0.7126954138318098  0.4934253535956757  0.058998880601535554  1.0000
  H   H31       1.0  0.6857979371912607  0.4263253098647082  0.09400204268417409  1.0000
  H   H32       1.0  0.07252143437234082  0.1478731968496447  0.240073014180048  1.0000
  H   H33       1.0  0.158512224891254  0.06981568759815097  0.22407035398184408  1.0000
  H   H34       1.0  0.07044583040953262  0.06054976399469329  0.23735759547767532  1.0000
  H   H35       1.0  0.49301273536222123  0.48236524819308363  0.8153412222714065  1.0000
  H   H36       1.0  0.519107645586189  0.42950176282919733  0.8639827263607528  1.0000
  H   H37       1.0  0.45302549753825627  0.5274749674951239  0.8601496972408068  1.0000
  H   H38       1.0  0.9734345714582633  0.7140268604695165  0.8060580663324897  1.0000
  H   H39       1.0  0.9185859338840958  0.6987619569515006  0.8531215928182616  1.0000
  H   H40       1.0  0.017883200464915195  0.6743467022834723  0.8510641805910097  1.0000
  C   C1        1.0  0.06142469243446412  0.3160046188762066  0.5618940600756374  1.0000
  C   C2        1.0  0.06921618989738222  0.569891549923675  0.5683693437368686  1.0000
  C   C3        1.0  0.1841020900697359  0.4386656767695031  0.43812714955993926  1.0000
  C   C4        1.0  0.9375622234736127  0.6847184580215854  0.43848655558657856  1.0000
  C   C5        1.0  0.9296377867392637  0.43210808581377336  0.4309512744491925  1.0000
  C   C6        1.0  0.8164570621498016  0.5616355221965962  0.5622748724214116  1.0000
  C   C7        1.0  0.5654631512787347  0.3109331408968997  0.3114360851986006  1.0000
  C   C8        1.0  0.6820463531361156  0.18131938602607517  0.18037097250604006  1.0000
  C   C9        1.0  0.6890526063919822  0.43470975439905873  0.18858653582142887  1.0000
  C   C10       1.0  0.9349880370553337  0.18830225095871378  0.18892446977790903  1.0000
  C   C11       1.0  0.8200918221343514  0.31791454781550504  0.31879079418423106  1.0000
  C   C12       1.0  0.8113849253650259  0.0650203116905459  0.31122440099220927  1.0000
  C   C13       1.0  0.43415609789428805  0.6888169777987796  0.6879851436768333  1.0000
  C   C14       1.0  0.3179168447793757  0.8202430285136444  0.8188622567302344  1.0000
  C   C15       1.0  0.18844157145283447  0.9336831091246223  0.6876111285935947  1.0000
  C   C16       1.0  0.06515596185245441  0.8108913277124259  0.8114532617903902  1.0000
  C   C17       1.0  0.18053344682051892  0.680276820126757  0.6815390957179445  1.0000
  C   C18       1.0  0.3127480514695621  0.5660440820845452  0.8117750667771444  1.0000
  C   C19       1.0  0.4376919504581664  0.18447198737366222  0.9384087827570509  1.0000
  C   C20       1.0  0.43240929574135123  0.929542716381697  0.9310333649150732  1.0000
  C   C21       1.0  0.6847244130218898  0.9398450458579575  0.9388919646834066  1.0000
  C   C22       1.0  0.5612756438124863  0.8157657038489315  0.06177819096257049  1.0000
  C   C23       1.0  0.5681560415506227  0.0686132525163075  0.06956018911565556  1.0000
  C   C24       1.0  0.3144863146740278  0.0616243012866917  0.06066969660240319  1.0000
  C   C25       1.0  0.8985471905013611  0.40599014696177  0.40200768403921217  1.0000
  C   C26       1.0  0.8514505994776798  0.34438839152571166  0.3474168362259107  1.0000
  C   C27       1.0  0.8272268554523878  0.44735146182051  0.3869938205133251  1.0000
  C   C28       1.0  0.9228975753269423  0.30319173994530496  0.36228825231758316  1.0000
  C   C29       1.0  0.8052146806999475  0.41621820442583163  0.3604113276548018  1.0000
  C   C30       1.0  0.9448121907431145  0.3341917934219365  0.38898565303181687  1.0000
  C   C31       1.0  0.0993605159675397  0.5997328041140975  0.5958986722227377  1.0000
  C   C32       1.0  0.1502711730139836  0.6504904930119083  0.6540184107948902  1.0000
  C   C33       1.0  0.1427442252323701  0.6426539466904161  0.5827023357107706  1.0000
  C   C34       1.0  0.1069125588893201  0.607542835559798  0.667215501404108  1.0000
  C   C35       1.0  0.16705483458369494  0.6669211873099599  0.61157616175403  1.0000
  C   C36       1.0  0.082637832397026  0.5832465967656616  0.6383475152537484  1.0000
  C   C37       1.0  0.30375619904005907  0.4553554311634684  0.4013036598972801  1.0000
  C   C38       1.0  0.4462530118725567  0.2959511323643298  0.3490861784894434  1.0000
  C   C39       1.0  0.259030524829484  0.4145662138400894  0.41369008731346907  1.0000
  C   C40       1.0  0.49080809528553  0.3361561955578197  0.33654286814860507  1.0000
  C   C41       1.0  0.37808209000690607  0.3386730909079246  0.37272179660235577  1.0000
  C   C42       1.0  0.3717431282769752  0.4108703664427935  0.37781444661515445  1.0000
  C   C43       1.0  0.7274256197864162  0.5750737131025117  0.6301871778763511  1.0000
  C   C44       1.0  0.5244805076130703  0.6734834799129742  0.620994089014168  1.0000
  C   C45       1.0  0.742331769218211  0.5856901754469491  0.5874924247277774  1.0000
  C   C46       1.0  0.5092717635850336  0.6633159300345499  0.6633606374057803  1.0000
  C   C47       1.0  0.6036836976401787  0.6415634051824671  0.6085490725372721  1.0000
  C   C48       1.0  0.6476300342629744  0.6075098142109142  0.6416853520875844  1.0000
  C   C49       1.0  0.0755430555150483  0.22692657254327034  0.6298972777860213  1.0000
  C   C50       1.0  0.17415416043133555  0.024048718087769264  0.6207142378054937  1.0000
  C   C51       1.0  0.08596072764871111  0.24182664910906485  0.5871563656544011  1.0000
  C   C52       1.0  0.1638167768947341  0.008826180057894822  0.6630688920520666  1.0000
  C   C53       1.0  0.1422432697873717  0.103230031283907  0.6082766893230768  1.0000
  C   C54       1.0  0.108164170960336  0.14714241339304832  0.6414183565427932  1.0000
  C   C55       1.0  0.8425142602809218  0.8000226511902895  0.3974780036975714  1.0000
  C   C56       1.0  0.9044510834906064  0.9496825464834232  0.3524022359771094  1.0000
  C   C57       1.0  0.9118533581753002  0.7590230858878402  0.4135445378429237  1.0000
  C   C58       1.0  0.8357217662103764  0.9905011147357075  0.33632892983931817  1.0000
  C   C59       1.0  0.9076960129068326  0.8801509976519668  0.3747069891080201  1.0000
  C   C60       1.0  0.8412474695897033  0.8692599901076721  0.37529145930444924  1.0000
  C   C61       1.0  0.6542379022572788  0.1540329158638087  0.150362956914492  1.0000
  C   C62       1.0  0.5957973787099605  0.09611755014469729  0.0995441215700197  1.0000
  C   C63       1.0  0.6670652871753404  0.1674722855755704  0.10717733148506878  1.0000
  C   C64       1.0  0.582714482674227  0.08292915294094887  0.14273053042695946  1.0000
  C   C65       1.0  0.6381689006119019  0.13859035825282723  0.08290760401079206  1.0000
  C   C66       1.0  0.6118195960428424  0.11161377197888811  0.16699902419708218  1.0000
  C   C67       1.0  0.6744348331780189  0.523038547860665  0.1204001776163678  1.0000
  C   C68       1.0  0.5757059720514661  0.7261813505859751  0.12882616715526748  1.0000
  C   C69       1.0  0.6639308579762472  0.5086822494213693  0.16316710225471803  1.0000
  C   C70       1.0  0.5862685931730454  0.7408263659710884  0.08643826130768419  1.0000
  C   C71       1.0  0.6075715910705598  0.6471348349153984  0.14157584845617785  1.0000
  C   C72       1.0  0.6417998852627136  0.6027446445991775  0.10863399020691128  1.0000
  C   C73       1.0  0.0813056288125651  0.12418052348887443  0.17849523906176049  1.0000
  C   C74       1.0  0.16900537025324522  0.1258770495526704  0.07238008097741747  1.0000
  C   C75       1.0  0.0098756564066989  0.16350344105629944  0.1645254073222375  1.0000
  C   C76       1.0  0.24010532188703593  0.08675517088249761  0.08595133390168996  1.0000
  C   C77       1.0  0.11079674326961  0.13988615413389743  0.10577610276873625  1.0000
  C   C78       1.0  0.1384827658489982  0.1111584296487536  0.14433303000063796  1.0000
  C   C79       1.0  0.3442735107865218  0.8512755737943466  0.8477186625606519  1.0000
  C   C80       1.0  0.40604515182216266  0.8982658083982217  0.9023082340781838  1.0000
  C   C81       1.0  0.3029715762842287  0.9225865373049019  0.8627421041437342  1.0000
  C   C82       1.0  0.44733215556360045  0.8269178618420127  0.8873281617397665  1.0000
  C   C83       1.0  0.33416184609392735  0.94446796086018  0.889367084605233  1.0000
  C   C84       1.0  0.41616872433584723  0.805045029976327  0.8606804674502796  1.0000
  C   C85       1.0  0.40776436419212564  0.4498394497534477  0.8525424248737108  1.0000
  C   C86       1.0  0.3447333180445328  0.300764394728212  0.8973869940823814  1.0000
  C   C87       1.0  0.3384390669816639  0.4913827636207628  0.836505698294708  1.0000
  C   C88       1.0  0.4133909448105585  0.25929795267112604  0.9134546914201562  1.0000
  C   C89       1.0  0.34202932645291645  0.3701922657688569  0.8751452060291454  1.0000
  C   C90       1.0  0.4087640302880331  0.38055566918487216  0.8745992713471862  1.0000
  C   C91       1.0  0.9456508678259752  0.7943947337975459  0.8487739570234323  1.0000
  C   C92       1.0  0.8039308278634323  0.9544229059883239  0.9008607501824667  1.0000
  C   C93       1.0  0.9904706067105875  0.8350072234856682  0.8361195642095821  1.0000
  C   C94       1.0  0.7591727307800299  0.9145166213276638  0.9136679028006821  1.0000
  C   C95       1.0  0.8718832736196093  0.9112766708480681  0.8772207482842587  1.0000
  C   C96       1.0  0.8778501132564217  0.8390891017686641  0.8723465335741165  1.0000
  C   C97       1.0  0.28507142071964614  0.5335326978031247  0.4106688937493458  1.0000
  C   C98       1.0  0.7852387936170545  0.5359526796800509  0.6599127450461707  1.0000
  C   C99       1.0  0.03642779861959871  0.2844802249307108  0.6597803994897687  1.0000
  C   C100      1.0  0.7785916076611911  0.7763371174635552  0.402136832803265  1.0000
  C   C101      1.0  0.7134965283118717  0.4651732565518857  0.0906810134012801  1.0000
  C   C102      1.0  0.09692930970236091  0.09910248081703799  0.22229521714619685  1.0000
  C   C103      1.0  0.4718909922474595  0.4732327054454828  0.8478593697865688  1.0000
  C   C104      1.0  0.9645504148305976  0.7162117909883251  0.839356357353857  1.0000
  S   S1        1.0  0.2993521027006878  0.3246202018690807  0.39714302827869113  1.0000
  S   S2        1.0  0.4502951880927953  0.42566931769508903  0.35332934642703856  1.0000
  S   S3        1.0  0.6610245633642293  0.6338625981202383  0.5623165009595397  1.0000
  S   S4        1.0  0.59072138398259  0.6151098466358816  0.688201677849058  1.0000
  S   S5        1.0  0.1342641765198991  0.16050190895358452  0.5620309622911036  1.0000
  S   S6        1.0  0.115610723302332  0.0902213017211295  0.687929343579519  1.0000
  S   S7        1.0  0.9734079768380113  0.8040121515344296  0.4017702421636144  1.0000
  S   S8        1.0  0.7749260344340598  0.9450502264216782  0.3482191661993994  1.0000
  S   S9        1.0  0.6153840796945004  0.590369463103279  0.1879867190568092  1.0000
  S   S10       1.0  0.6347280288608346  0.6590476838305934  0.061928211013473296  1.0000
  S   S11       1.0  0.012841616232371702  0.1838727425817197  0.11127782104342289  1.0000
  S   S12       1.0  0.2366618965285312  0.06684032068334744  0.13911936585359538  1.0000
  S   S13       1.0  0.27657437516457867  0.4467244804092303  0.8481283246952811  1.0000
  S   S14       1.0  0.4747387727712892  0.3042326278040689  0.901653691304659  1.0000
  S   S15       1.0  0.9506172324959863  0.9250262426963188  0.8525251638851328  1.0000
  S   S16       1.0  0.7991876696227393  0.8247897244350711  0.8971234613743488  1.0000
  Br  Br1       1.0  0.7548831181861148  0.5455174746076636  0.4001706125583765  1.0000
  Br  Br2       1.0  0.9954556578943683  0.2051713583389087  0.34896035254278246  1.0000
  Br  Br3       1.0  0.1725788021825139  0.6717701081700583  0.5269717924044812  1.0000
  Br  Br4       1.0  0.07741172551681072  0.5780240189078326  0.7229628306445262  1.0000
  Br  Br5       1.0  0.72231330586105  0.2236008970353538  0.07758995008681066  1.0000
  Br  Br6       1.0  0.5266465169321393  0.027735388452960363  0.17232754648055953  1.0000
  Br  Br7       1.0  0.204825768219699  0.994762529862747  0.8496199854917703  1.0000
  Br  Br8       1.0  0.5454927131336548  0.7547091697180691  0.9004734906427955  1.0000
  O   O1        1.0  0.0006553493897384996  0.49853832871394843  0.49983037073230446  1.0000
  O   O2        1.0  0.0774151487590728  0.3153142695173016  0.5228865483073617  1.0000
  O   O3        1.0  0.031521312683906906  0.5314541369751922  0.5861703347999735  1.0000
  O   O4        1.0  0.15538206379687133  0.5053323035179816  0.4493990802788159  1.0000
  O   O5        1.0  0.026148121034871998  0.3750665772478144  0.5808977496592432  1.0000
  O   O6        1.0  0.153627441007643  0.39113948494001954  0.44607431372207157  1.0000
  O   O7        1.0  0.0832804485947207  0.5850158390429314  0.5299327579432287  1.0000
  O   O8        1.0  0.005064591914781099  0.6571565491304767  0.4488108553877764  1.0000
  O   O9        1.0  0.8883853085899319  0.49731474968926676  0.44257505831752286  1.0000
  O   O10       1.0  0.8908735262554544  0.6535487918728152  0.44794732688212946  1.0000
  O   O11       1.0  0.9952365628643989  0.38633203910379194  0.4414882800602057  1.0000
  O   O12       1.0  0.8758344119195698  0.5257480198125818  0.5809500934880488  1.0000
  O   O13       1.0  0.8152690666297531  0.5788679976781382  0.5233271240941234  1.0000
  O   O14       1.0  0.7483535530451422  0.2505295662653635  0.25050436386658953  1.0000
  O   O15       1.0  0.5965152722161662  0.35784874721194637  0.30345421763989566  1.0000
  O   O16       1.0  0.6644983040866421  0.16337832366233596  0.21844955961876872  1.0000
  O   O17       1.0  0.7257614535728507  0.37568044533375666  0.16970628084788325  1.0000
  O   O18       1.0  0.5924797939756985  0.24470916691641512  0.29987359520507073  1.0000
  O   O19       1.0  0.6723334802304635  0.43536422504500655  0.22759719751123697  1.0000
  O   O20       1.0  0.7204879960976244  0.21972201463456287  0.16566816397310183  1.0000
  O   O21       1.0  0.8770115164464515  0.22571113893371839  0.16906420948815537  1.0000
  O   O22       1.0  0.8615791348082169  0.25290560877659385  0.306989448804451  1.0000
  O   O23       1.0  0.9334080682963233  0.17058206180929136  0.22784880606314314  1.0000
  O   O24       1.0  0.7540287591827451  0.3631726390712726  0.3087237445176853  1.0000
  O   O25       1.0  0.744803313472353  0.09305305677044376  0.29982880223089126  1.0000
  O   O26       1.0  0.8590029717141903  0.09506656414959028  0.30296713861862656  1.0000
  O   O27       1.0  0.25077393373660334  0.7503150727081692  0.749282768840608  1.0000
  O   O28       1.0  0.3759863672969175  0.7240046806937814  0.6684050280914774  1.0000
  O   O29       1.0  0.3636790945950851  0.7543650050833507  0.8085713980750596  1.0000
  O   O30       1.0  0.1714946042241579  0.9336882403836954  0.726562650190587  1.0000
  O   O31       1.0  0.434132776713902  0.6732424909019983  0.7270148299007742  1.0000
  O   O32       1.0  0.22416997610025646  0.8754360949656288  0.6680900810684206  1.0000
  O   O33       1.0  0.25290033727972633  0.8613174797591368  0.8070353295969993  1.0000
  O   O34       1.0  0.09472754263337181  0.8591880976718754  0.8028698468754882  1.0000
  O   O35       1.0  0.16545099093824692  0.6660081506974151  0.7199690666609085  1.0000
  O   O36       1.0  0.0948053874362245  0.7438919139935365  0.8005796929992781  1.0000
  O   O37       1.0  0.2191962106083309  0.7177090482670749  0.6637565670202928  1.0000
  O   O38       1.0  0.3587813013576167  0.5980565765709186  0.8029813488841311  1.0000
  O   O39       1.0  0.24563493084489352  0.5930733042050066  0.8009921568711388  1.0000
  O   O40       1.0  0.49928538836940123  0.0013372593759015789  0.9996431322805887  1.0000
  O   O41       1.0  0.5040888628477092  0.15704291244355065  0.950008235242066  1.0000
  O   O42       1.0  0.3869397923741573  0.9956378688872219  0.9410535250955119  1.0000
  O   O43       1.0  0.6544426539678626  0.8922690886321757  0.9473813796902987  1.0000
  O   O44       1.0  0.39069695693572737  0.15371490113599146  0.9462456562856684  1.0000
  O   O45       1.0  0.6569329639967664  0.006378050958190334  0.9501140803496141  1.0000
  O   O46       1.0  0.49729430551344234  0.8882209695846371  0.9429933879614721  1.0000
  O   O47       1.0  0.5794039312443645  0.8160073326154774  0.022862480449418857  1.0000
  O   O48       1.0  0.5299519963511372  0.029979211011486474  0.08430425162448069  1.0000
  O   O49       1.0  0.5237321438649475  0.8739483698075148  0.08118312924085562  1.0000
  O   O50       1.0  0.5856120721973211  0.08653090139561939  0.031466602188494584  1.0000
  O   O51       1.0  0.3145592328246352  0.07799755127225443  0.02176695009473658  1.0000
  O   O52       1.0  0.3728025831797552  0.025243957467345975  0.08022911126733587  1.0000
