data_image0
_chemical_formula_structural       K4H28C60N16O4
_chemical_formula_sum              "K4 H28 C60 N16 O4"
_cell_length_a       8.034563724798566
_cell_length_b       9.694646219462456
_cell_length_c       17.70856869792502
_cell_angle_alpha    90.00031080430519
_cell_angle_beta     91.01842677945079
_cell_angle_gamma    89.9989169943537

_space_group_name_H-M_alt    "P 1"
_space_group_IT_number       1

loop_
  _space_group_symop_operation_xyz
  'x, y, z'

loop_
  _atom_site_type_symbol
  _atom_site_label
  _atom_site_symmetry_multiplicity
  _atom_site_fract_x
  _atom_site_fract_y
  _atom_site_fract_z
  _atom_site_occupancy
  K   K1        1.0  0.9652921951034938  0.6329276500310074  0.9000567627118912  1.0000
  K   K2        1.0  0.5346929412901531  0.1329284287830248  0.0999461858160728  1.0000
  K   K3        1.0  0.034689488048925896  0.3670667363561506  0.0999352069660162  1.0000
  K   K4        1.0  0.4653114287431491  0.8670845245010458  0.9000713270289326  1.0000
  H   H1        1.0  0.21830221259704527  0.6239782957133356  0.5309996222524305  1.0000
  H   H2        1.0  0.28170540352095935  0.12398812721536248  0.4690017217288016  1.0000
  H   H3        1.0  0.7817019393242147  0.37602124801173187  0.4689981246185297  1.0000
  H   H4        1.0  0.7182975533804025  0.8760207000157865  0.5310005358783273  1.0000
  H   H5        1.0  0.23615113735156965  0.7888637885557727  0.486718517893678  1.0000
  H   H6        1.0  0.2638490107979337  0.2888743380916096  0.513283265211534  1.0000
  H   H7        1.0  0.7638530145696903  0.21113575516930186  0.5132792289772823  1.0000
  H   H8        1.0  0.7361514564960812  0.7111344891590221  0.4867189779766932  1.0000
  H   H9        1.0  0.05638299473986309  0.6859299583856426  0.47104682696123484  1.0000
  H   H10       1.0  0.44362072276755526  0.18593783991487103  0.5289541109727622  1.0000
  H   H11       1.0  0.9436211634058294  0.31407061683933074  0.528951484652751  1.0000
  H   H12       1.0  0.5563797382903458  0.8140709873330111  0.4710475674738959  1.0000
  H   H13       1.0  0.8297545634456824  0.6862119219882387  0.7299347585654347  1.0000
  H   H14       1.0  0.6702392812336697  0.18620915938699772  0.2700644433381427  1.0000
  H   H15       1.0  0.17024335819773737  0.3137896847770989  0.2700623875195944  1.0000
  H   H16       1.0  0.3297649392264077  0.81379554185402  0.729939515697403  1.0000
  H   H17       1.0  0.022487972322927898  0.08819924360395962  0.6715346725098215  1.0000
  H   H18       1.0  0.47751051429880675  0.588202938241686  0.3284682080320351  1.0000
  H   H19       1.0  0.9775124326800507  0.9118033946363157  0.3284619232539612  1.0000
  H   H20       1.0  0.5224936687446159  0.4118017629828755  0.6715323625540321  1.0000
  H   H21       1.0  0.15142232469110434  0.9885079922550448  0.5592507198035079  1.0000
  H   H22       1.0  0.34857703729181827  0.488516494373286  0.440751642807257  1.0000
  H   H23       1.0  0.848579325150581  0.011491551484020599  0.4407458831653983  1.0000
  H   H24       1.0  0.6514246498847879  0.5114902698623213  0.5592483486212174  1.0000
  H   H25       1.0  0.9684244857258334  0.5859332919787403  0.6196070903918952  1.0000
  H   H26       1.0  0.5315753701896638  0.0859348288735617  0.3803924176718638  1.0000
  H   H27       1.0  0.03157842139175669  0.41406625175606854  0.3803906492696214  1.0000
  H   H28       1.0  0.4684288440226253  0.9140709038618695  0.619610976623548  1.0000
  C   C1        1.0  0.8419127868176018  0.9452973327475505  0.7784239646224052  1.0000
  C   C2        1.0  0.6580751851305919  0.44529015583596987  0.2215753965143108  1.0000
  C   C3        1.0  0.15807517641978558  0.0547022111013717  0.221573123784168  1.0000
  C   C4        1.0  0.34192024698722884  0.554704230468751  0.778421735141734  1.0000
  C   C5        1.0  0.917350353537465  0.8938463530989152  0.7094816476374177  1.0000
  C   C6        1.0  0.5826462708925034  0.3938451681591317  0.2905193072159449  1.0000
  C   C7        1.0  0.08264883784239171  0.10615628516480767  0.2905177646248235  1.0000
  C   C8        1.0  0.4173541652910302  0.6061574700948497  0.70948011225574  1.0000
  C   C9        1.0  0.9017079648220089  0.7520423539081024  0.692883939838687  1.0000
  C   C10       1.0  0.5982881236224601  0.2520421188900599  0.30711546765144254  1.0000
  C   C11       1.0  0.0982949422722186  0.24795925282101894  0.3071137998257072  1.0000
  C   C12       1.0  0.40171359475805696  0.7479625823649415  0.6928873474820492  1.0000
  C   C13       1.0  0.9778443188125506  0.696492231032572  0.6304075885905149  1.0000
  C   C14       1.0  0.5221530399092487  0.19649484061039152  0.3695927931590717  1.0000
  C   C15       1.0  0.022157355961901694  0.30350834421462036  0.3695912733461526  1.0000
  C   C16       1.0  0.4778499232749382  0.8035098606348755  0.6304100291838708  1.0000
  C   C17       1.0  0.0687743012687889  0.7802412206605354  0.580942084560391  1.0000
  C   C18       1.0  0.43122726830633695  0.2802440845417067  0.4190579874241322  1.0000
  C   C19       1.0  0.931231095456141  0.2197583230547977  0.4190556695200129  1.0000
  C   C20       1.0  0.5687756699450829  0.7197595851954405  0.5809425759510489  1.0000
  C   C21       1.0  0.08102742811040999  0.9220452426167752  0.5967617635591296  1.0000
  C   C22       1.0  0.41897219399723434  0.4220543315476561  0.4032404061213981  1.0000
  C   C23       1.0  0.9189754914910679  0.07795326962637009  0.403237105584104  1.0000
  C   C24       1.0  0.5810295056282371  0.5779544956877416  0.5967607147931205  1.0000
  C   C25       1.0  0.008588989594500199  0.9783761853085908  0.6603516732866908  1.0000
  C   C26       1.0  0.4914093570505357  0.4783804137160245  0.3396506537966246  1.0000
  C   C27       1.0  0.9914114403879566  0.021623358451179804  0.3396471814390907  1.0000
  C   C28       1.0  0.5085960645370875  0.5216263504903651  0.660349359260195  1.0000
  C   C29       1.0  0.8685679723111122  0.09470921443917041  0.802296985756584  1.0000
  C   C30       1.0  0.6314267120022449  0.5947026100799206  0.1977030827227821  1.0000
  C   C31       1.0  0.13142252424478326  0.9052851719236943  0.1977040702527333  1.0000
  C   C32       1.0  0.36857992960810987  0.405289713145585  0.8022946785569829  1.0000
  C   C33       1.0  0.7944099770272217  0.19857927837641398  0.7580069684394317  1.0000
  C   C34       1.0  0.7055960232774936  0.6985678212165781  0.24199121062229517  1.0000
  C   C35       1.0  0.2055792871505062  0.8014192339902949  0.2419952098493638  1.0000
  C   C36       1.0  0.2944168486223758  0.30142140747151563  0.7580071514419657  1.0000
  C   C37       1.0  0.6956982554970919  0.16715826706212064  0.693260962121748  1.0000
  C   C38       1.0  0.8043208606768387  0.6671458996970329  0.3067332480401319  1.0000
  C   C39       1.0  0.3043022056775939  0.8328402452142071  0.3067407163104932  1.0000
  C   C40       1.0  0.19570441563035254  0.3328412658801766  0.6932612329246481  1.0000
  C   C41       1.0  0.8172548473219976  0.340602920112282  0.7726219216095629  1.0000
  C   C42       1.0  0.6827504267057164  0.8405916772303501  0.2273766687381737  1.0000
  C   C43       1.0  0.18274563878545538  0.6593966236721656  0.22738201579043957  1.0000
  C   C44       1.0  0.3172488273038425  0.159387236626209  0.7726283909067178  1.0000
  C   C45       1.0  0.9637068822835956  0.11248458935983759  0.8693550779658636  1.0000
  C   C46       1.0  0.5362836838014146  0.6124808791612891  0.1306467127849515  1.0000
  C   C47       1.0  0.036281155845507784  0.8875097970362166  0.1306487873324684  1.0000
  C   C48       1.0  0.463722970199413  0.3875186645497948  0.8693521779880625  1.0000
  C   C49       1.0  0.9911401975078105  0.23974654856664296  0.9060839089093095  1.0000
  C   C50       1.0  0.5088648891961043  0.7397480634700314  0.0939160794319278  1.0000
  C   C51       1.0  0.008844037648096  0.7602447433369901  0.0939137225989697  1.0000
  C   C52       1.0  0.4911430407188745  0.2602576692279542  0.9060856422670795  1.0000
  C   C53       1.0  0.044078504531569286  0.9981674117106893  0.9032828995463689  1.0000
  C   C54       1.0  0.4559169044353126  0.49816567020545205  0.09671946841375251  1.0000
  C   C55       1.0  0.9559144753605294  0.0018300691214249998  0.0967176061445869  1.0000
  C   C56       1.0  0.5440860151194613  0.5018369680263105  0.9032794007352507  1.0000
  C   C57       1.0  0.1499707018069499  0.7175252245475079  0.5138587969152014  1.0000
  C   C58       1.0  0.3500310679365199  0.21753415252415206  0.486143351582882  1.0000
  C   C59       1.0  0.8500334563387425  0.2824753506774655  0.4861395146987847  1.0000
  C   C60       1.0  0.6499694055936017  0.7824746747292225  0.5138594563469354  1.0000
  N   N1        1.0  0.6135826865213048  0.14537858244140983  0.6392557867204758  1.0000
  N   N2        1.0  0.8864468748779473  0.6453778373153936  0.3607378555311058  1.0000
  N   N3        1.0  0.3864202580246214  0.8546199298126993  0.3607453413890767  1.0000
  N   N4        1.0  0.1135945712179236  0.3546258320842314  0.6392555896963829  1.0000
  N   N5        1.0  0.8377408482258416  0.4583812228365574  0.7838196977818156  1.0000
  N   N6        1.0  0.6622642672273854  0.9583701909718626  0.2161809303261819  1.0000
  N   N7        1.0  0.16226705063704827  0.5416131633790043  0.21617920019344442  1.0000
  N   N8        1.0  0.3377200801551509  0.0416231639754372  0.783826866533424  1.0000
  N   N9        1.0  0.0164648443860997  0.3432516915191215  0.9385053282597511  1.0000
  N   N10       1.0  0.4835540328509963  0.8432536840774744  0.0615006753557239  1.0000
  N   N11       1.0  0.9835244198033165  0.6567457893504312  0.061496850027609205  1.0000
  N   N12       1.0  0.516452733294706  0.15675514315736183  0.9385083807786997  1.0000
  N   N13       1.0  0.11327663916161157  0.903278547422872  0.9303686876480198  1.0000
  N   N14       1.0  0.3867184412331993  0.403279687802261  0.0696345302256631  1.0000
  N   N15       1.0  0.8867125440634779  0.09670964993662783  0.0696261489858259  1.0000
  N   N16       1.0  0.6132832584623387  0.5967229504502144  0.9303665906802151  1.0000
  O   O1        1.0  0.7609220995713172  0.8711500416660058  0.8218380492993518  1.0000
  O   O2        1.0  0.739057555500075  0.37114013239310134  0.1781576585134133  1.0000
  O   O3        1.0  0.2390446458319175  0.1288536283124131  0.178153833878163  1.0000
  O   O4        1.0  0.26092665473474597  0.628849096505256  0.8218377140256621  1.0000
