data_image0
_chemical_formula_structural       Cu4H28C28I4N4O4
_chemical_formula_sum              "Cu4 H28 C28 I4 N4 O4"
_cell_length_a       4.202250838049576
_cell_length_b       10.93380428936862
_cell_length_c       18.043632198072252
_cell_angle_alpha    89.99968003693827
_cell_angle_beta     89.99999269043761
_cell_angle_gamma    96.34072351303382

_space_group_name_H-M_alt    "P 1"
_space_group_IT_number       1

loop_
  _space_group_symop_operation_xyz
  'x, y, z'

loop_
  _atom_site_type_symbol
  _atom_site_label
  _atom_site_symmetry_multiplicity
  _atom_site_fract_x
  _atom_site_fract_y
  _atom_site_fract_z
  _atom_site_occupancy
  Cu  Cu1       1.0  0.24440666797092794  0.4850096632468492  0.0461245928740652  1.0000
  Cu  Cu2       1.0  0.7555756276737638  0.015001671789299596  0.5461167231147571  1.0000
  Cu  Cu3       1.0  0.755582276942064  0.5150022349301153  0.9538830051882815  1.0000
  Cu  Cu4       1.0  0.24440549758971025  0.9850074177413287  0.45387480280042786  1.0000
  H   H1        1.0  0.42804475144531295  0.42533110084279  0.20068226283689944  1.0000
  H   H2        1.0  0.571952638942726  0.07467429456211509  0.7006786327891916  1.0000
  H   H3        1.0  0.5719484514721742  0.5746688847598448  0.799321455760442  1.0000
  H   H4        1.0  0.4280538193831943  0.9253312923648163  0.2993167726163861  1.0000
  H   H5        1.0  0.01591804284183953  0.6824960368766  0.34421003493692137  1.0000
  H   H6        1.0  0.9840903500860989  0.8175000866270064  0.8441989215475516  1.0000
  H   H7        1.0  0.9841069771745906  0.31749773432265016  0.6558036594887895  1.0000
  H   H8        1.0  0.0159305698807941  0.1824964126319486  0.1557870622666826  1.0000
  H   H9        1.0  0.8286232950631741  0.7835495866498401  0.2297833318911557  1.0000
  H   H10       1.0  0.17137442381606854  0.7164512116234788  0.7297687095983392  1.0000
  H   H11       1.0  0.1713941925746383  0.21645240063146076  0.77023535043012  1.0000
  H   H12       1.0  0.8286283149477427  0.2835488387119724  0.2702139489374247  1.0000
  H   H13       1.0  0.9524957935770357  0.6993546861290553  0.106215224280902  1.0000
  H   H14       1.0  0.04748241163050431  0.8006535684012871  0.6062019858571759  1.0000
  H   H15       1.0  0.0474998579737687  0.3006554203199556  0.8938006869664221  1.0000
  H   H16       1.0  0.9525004297833205  0.19935277707520527  0.3937823353047848  1.0000
  H   H17       1.0  0.31252919537331536  0.4331714040918937  0.4600485450578661  1.0000
  H   H18       1.0  0.6874589021994523  0.06682598520515629  0.960042720237574  1.0000
  H   H19       1.0  0.6874598427493266  0.5668212046846506  0.5399573904005308  1.0000
  H   H20       1.0  0.3125377330109771  0.9331685122657658  0.039951576762575804  1.0000
  H   H21       1.0  0.9538167060475259  0.4752018076629908  0.4182109879181155  1.0000
  H   H22       1.0  0.04617606672884728  0.024795086986614492  0.918207545445121  1.0000
  H   H23       1.0  0.04618186789390676  0.5247908657630446  0.5817916222671542  1.0000
  H   H24       1.0  0.9538251137793451  0.9751985227060798  0.0817895226171359  1.0000
  H   H25       1.0  0.27085848225276266  0.5913420412481327  0.4386335225810782  1.0000
  H   H26       1.0  0.7291359815741955  0.9086558582630672  0.938629316678096  1.0000
  H   H27       1.0  0.7291403142891112  0.4086515522470362  0.5613718586633354  1.0000
  H   H28       1.0  0.2708630375896419  0.09133865536632867  0.06136498032198291  1.0000
  C   C1        1.0  0.29669519949919737  0.5048278796279888  0.2092923713013519  1.0000
  C   C2        1.0  0.7033008668528494  0.9951758552406171  0.7092856583054116  1.0000
  C   C3        1.0  0.7033075392267489  0.4951721705928944  0.7907146725685408  1.0000
  C   C4        1.0  0.2967029849183546  0.0048287954561133  0.29070753025323637  1.0000
  C   C5        1.0  0.23782615970122117  0.5449403674312023  0.28113870398959057  1.0000
  C   C6        1.0  0.7621737836592501  0.9550599643939461  0.7811332322347795  1.0000
  C   C7        1.0  0.7621850018154603  0.4550551470153934  0.7188677856756343  1.0000
  C   C8        1.0  0.23783893611219042  0.044941990692805696  0.2188594021160952  1.0000
  C   C9        1.0  0.06773596830137049  0.6472766824646214  0.28943453645841544  1.0000
  C   C10       1.0  0.9322635040983371  0.8527217312658163  0.789424414884323  1.0000
  C   C11       1.0  0.9322777997648685  0.3527197681965574  0.7105774953265822  1.0000
  C   C12       1.0  0.06774877047048727  0.14727838367745955  0.21056378577254264  1.0000
  C   C13       1.0  0.9643999797276236  0.7044768586595324  0.2263628651018905  1.0000
  C   C14       1.0  0.03559104311494104  0.7955257634236897  0.7263524154350733  1.0000
  C   C15       1.0  0.035610133452969685  0.29552416008765187  0.7736508293118973  1.0000
  C   C16       1.0  0.9644099795028253  0.2044770309789142  0.2736346767932147  1.0000
  C   C17       1.0  0.03211130837800619  0.657978802912872  0.1570182753236438  1.0000
  C   C18       1.0  0.9678736683388106  0.8420281026273954  0.65700707999941  1.0000
  C   C19       1.0  0.9678906046183186  0.3420276716959592  0.8429948648689847  1.0000
  C   C20       1.0  0.0321189314890802  0.1579792275520973  0.3429800122214033  1.0000
  C   C21       1.0  0.35305946288515594  0.47610336553033494  0.345214054159527  1.0000
  C   C22       1.0  0.646935252687804  0.0238914709589793  0.8452089295809273  1.0000
  C   C23       1.0  0.6469436563514532  0.5238884201096566  0.6547929897242639  1.0000
  C   C24       1.0  0.3530759088478133  0.9761040435449001  0.15478536741723306  1.0000
  C   C25       1.0  0.21559039096772634  0.4951382743481929  0.4204272625390431  1.0000
  C   C26       1.0  0.784411242929032  0.004855903871096201  0.9204221968817664  1.0000
  C   C27       1.0  0.784414667015376  0.5048516872937723  0.5795781187113676  1.0000
  C   C28       1.0  0.21559448288724778  0.9951368180746057  0.07957099169691872  1.0000
  I   I1        1.0  0.6847059747628419  0.3305762659339776  0.046646358156934305  1.0000
  I   I2        1.0  0.3152725996754953  0.16942952753474566  0.5466413103601582  1.0000
  I   I3        1.0  0.3152766440161159  0.6694291593692298  0.953357360431447  1.0000
  I   I4        1.0  0.6847078577659927  0.8305768017259962  0.453355203468938  1.0000
  N   N1        1.0  0.19583398760066467  0.5592589271154578  0.1482624408121538  1.0000
  N   N2        1.0  0.8041447548562104  0.9407516925360112  0.6482547988142288  1.0000
  N   N3        1.0  0.804153844284279  0.44074837063774197  0.8517479283186518  1.0000
  N   N4        1.0  0.19584396747612226  0.059259285631718187  0.35173728130977383  1.0000
  O   O1        1.0  0.5541921162978554  0.4032083032112294  0.3356601100042269  1.0000
  O   O2        1.0  0.44579697061199397  0.09678291040002307  0.8356564102423505  1.0000
  O   O3        1.0  0.4458072833611552  0.5967779457904071  0.6643441628282576  1.0000
  O   O4        1.0  0.5542011581302687  0.903207922892953  0.1643395494003528  1.0000
