data_image0
_chemical_formula_structural       Cu2H20C28N20
_chemical_formula_sum              "Cu2 H20 C28 N20"
_cell_length_a       8.922310698146536
_cell_length_b       9.218287105792346
_cell_length_c       9.926504716594692
_cell_angle_alpha    80.37308697482177
_cell_angle_beta     68.19126127857278
_cell_angle_gamma    70.38252729754419

_space_group_name_H-M_alt    "P 1"
_space_group_IT_number       1

loop_
  _space_group_symop_operation_xyz
  'x, y, z'

loop_
  _atom_site_type_symbol
  _atom_site_label
  _atom_site_symmetry_multiplicity
  _atom_site_fract_x
  _atom_site_fract_y
  _atom_site_fract_z
  _atom_site_occupancy
  Cu  Cu1       1.0  0.1732328729429895  0.38652859261873823  0.07348508516927411  1.0000
  Cu  Cu2       1.0  0.826768708393075  0.6134694287969465  0.9265127047858359  1.0000
  H   H1        1.0  0.38518146197370834  0.0785986225436872  0.9425206649180994  1.0000
  H   H2        1.0  0.6148205507828663  0.921401681304303  0.05747458020852748  1.0000
  H   H3        1.0  0.6467488827520783  0.9806909386362644  0.7300154824105506  1.0000
  H   H4        1.0  0.35325682641204287  0.019312859595657997  0.26997992988955133  1.0000
  H   H5        1.0  0.7978891333396805  0.1697857462028551  0.5750247244360763  1.0000
  H   H6        1.0  0.20211341498477964  0.8302203789076327  0.4249733923137953  1.0000
  H   H7        1.0  0.6855573495691304  0.44256741778399805  0.6432879230747658  1.0000
  H   H8        1.0  0.31444476733481247  0.557436424894199  0.35671273850358903  1.0000
  H   H9        1.0  0.03525504164496602  0.7197085796084579  0.1377326627027458  1.0000
  H   H10       1.0  0.9647441537672418  0.28028948868191605  0.8622699641815574  1.0000
  H   H11       1.0  0.13139341216740524  0.9606091972299992  0.028994271479120894  1.0000
  H   H12       1.0  0.8686021709230475  0.0393888767079886  0.9710105955101228  1.0000
  H   H13       1.0  0.4260689565605064  0.8192703746742465  0.5607749708012479  1.0000
  H   H14       1.0  0.5739263231578206  0.18073233929722926  0.4392312372267072  1.0000
  H   H15       1.0  0.6667798466146025  0.8704397957282308  0.3434484372846284  1.0000
  H   H16       1.0  0.33321451676513186  0.12955824991556136  0.6565548359381382  1.0000
  H   H17       1.0  0.9577772516840781  0.7823295324211017  0.36279828514634005  1.0000
  H   H18       1.0  0.04222062655724561  0.21766498167776396  0.6371983345775265  1.0000
  H   H19       1.0  0.997232650748657  0.64404205567142  0.5892343809152365  1.0000
  H   H20       1.0  0.0027660597454755255  0.3559536267235756  0.4107627663353953  1.0000
  C   C1        1.0  0.45884452909406565  0.1539401873951007  0.8752918823401572  1.0000
  C   C2        1.0  0.5411555291591695  0.8460624457598769  0.12470565488717966  1.0000
  C   C3        1.0  0.6035533837868171  0.10115477974034799  0.7560347410467403  1.0000
  C   C4        1.0  0.39644871974273593  0.8988490370720752  0.2439639144160779  1.0000
  C   C5        1.0  0.6873319134210547  0.20589409950837015  0.6718422825791209  1.0000
  C   C6        1.0  0.3126722220104341  0.7941108750957254  0.32815548500363434  1.0000
  C   C7        1.0  0.6247262988791109  0.35900742272200853  0.7105778927736426  1.0000
  C   C8        1.0  0.3752738367727063  0.6409986975316356  0.2894210486743419  1.0000
  C   C9        1.0  0.4793176033643434  0.40460557924047436  0.8320421447834079  1.0000
  C   C10       1.0  0.520682842346794  0.5953959139125614  0.16795645868364073  1.0000
  C   C11       1.0  0.39339585554376555  0.5639985849434552  0.8814444474991702  1.0000
  C   C12       1.0  0.6066041587468619  0.43600062577728943  0.11855670079636138  1.0000
  C   C13       1.0  0.15312313778144943  0.7167001088639108  0.048653324311523215  1.0000
  C   C14       1.0  0.8468800507232289  0.28329680084402736  0.9513471256497823  1.0000
  C   C15       1.0  0.2043357278592523  0.8465346523865661  0.9872077432207363  1.0000
  C   C16       1.0  0.7956606941712041  0.1534646027804385  0.012798654353055411  1.0000
  C   C17       1.0  0.4412543648299946  0.6986117773506421  0.819592167765613  1.0000
  C   C18       1.0  0.5587445205229001  0.301390918040333  0.1804107970996256  1.0000
  C   C19       1.0  0.5886033520045616  0.7095217369709129  0.6870476720108627  1.0000
  C   C20       1.0  0.4113943270120118  0.2904809559916399  0.31295570520343563  1.0000
  C   C21       1.0  0.555195783074652  0.7835744358251516  0.5616489495609827  1.0000
  C   C22       1.0  0.4448014511470222  0.216425948839337  0.4383549663662619  1.0000
  C   C23       1.0  0.6886127792871335  0.8103697568392007  0.44193794294581323  1.0000
  C   C24       1.0  0.3113803643818898  0.18962826051040338  0.5580637365104694  1.0000
  C   C25       1.0  0.8501473266237412  0.7604592241938588  0.45163482144995015  1.0000
  C   C26       1.0  0.14985139055758617  0.23953647113401644  0.5483633288584501  1.0000
  C   C27       1.0  0.8720541847387014  0.6847636558268417  0.5797127875695337  1.0000
  C   C28       1.0  0.12794415835911374  0.31523320536874877  0.4202863026146986  1.0000
  N   N1        1.0  0.3987414616510847  0.3008558365078215  0.912379870471078  1.0000
  N   N2        1.0  0.6012605644798795  0.6991444932059352  0.08761738077109275  1.0000
  N   N3        1.0  0.24790759652225347  0.5785136059713949  0.9962722847364276  1.0000
  N   N4        1.0  0.7520912181192471  0.4214856152538004  0.003730278965932143  1.0000
  N   N5        1.0  0.34630043801914917  0.8372938251335426  0.8734811141645694  1.0000
  N   N6        1.0  0.6536964354934014  0.16270775126441347  0.12652574775403738  1.0000
  N   N7        1.0  0.7442587715354989  0.6599228474787607  0.69747481117696  1.0000
  N   N8        1.0  0.2557408552972191  0.34007750324391134  0.3025252708788599  1.0000
  N   N9        1.0  0.12469836782591415  0.18828523253073826  0.1114229037778074  1.0000
  N   N10       1.0  0.8753072066026206  0.8117116303025113  0.888572709254298  1.0000
  N   N11       1.0  0.0310139226747381  0.14099585542491866  0.2187445330518685  1.0000
  N   N12       1.0  0.968989626539063  0.8589998625495383  0.781252970918068  1.0000
  N   N13       1.0  0.9447101275068662  0.08446408138958357  0.318227437469254  1.0000
  N   N14       1.0  0.05529379579044755  0.9155304707171651  0.6817691266248644  1.0000
  N   N15       1.0  0.942823205504432  0.5162479717834286  0.1794830905271497  1.0000
  N   N16       1.0  0.05717831180743365  0.4837465883993629  0.8205153013228497  1.0000
  N   N17       1.0  0.8337688243557797  0.4729031106642408  0.2743724126963514  1.0000
  N   N18       1.0  0.16623232555977563  0.5270926283191456  0.7256279220872415  1.0000
  N   N19       1.0  0.7227297586112797  0.4376012745206949  0.36696852615456527  1.0000
  N   N20       1.0  0.2772710105335676  0.5623956173975129  0.6330317454470844  1.0000
