data_image0
_chemical_formula_structural       Ag2H24C24N6O10
_chemical_formula_sum              "Ag2 H24 C24 N6 O10"
_cell_length_a       7.060502409841169
_cell_length_b       8.813072634705556
_cell_length_c       11.1083867686192
_cell_angle_alpha    70.9632230400009
_cell_angle_beta     89.12848183350397
_cell_angle_gamma    76.28144857094331

_space_group_name_H-M_alt    "P 1"
_space_group_IT_number       1

loop_
  _space_group_symop_operation_xyz
  'x, y, z'

loop_
  _atom_site_type_symbol
  _atom_site_label
  _atom_site_symmetry_multiplicity
  _atom_site_fract_x
  _atom_site_fract_y
  _atom_site_fract_z
  _atom_site_occupancy
  Ag  Ag1       1.0  0.240904007630192  0.024862980403000296  0.8864727562546121  1.0000
  Ag  Ag2       1.0  0.7590953298553059  0.9751359397565621  0.11352707064423855  1.0000
  H   H1        1.0  0.976505365722211  0.237604883193839  0.9697290511583176  1.0000
  H   H2        1.0  0.023494330860053522  0.7623928014768422  0.03027018974972152  1.0000
  H   H3        1.0  0.16022977118984028  0.6947577108376846  0.8433215355120252  1.0000
  H   H4        1.0  0.8397738763291045  0.30523626978976626  0.1566804095144576  1.0000
  H   H5        1.0  0.0031223235865240986  0.011441081513154894  0.7209330160583817  1.0000
  H   H6        1.0  0.9968748997922675  0.9885602960398212  0.2790698054967465  1.0000
  H   H7        1.0  0.3001175274626249  0.8744404864342883  0.413813939287003  1.0000
  H   H8        1.0  0.6998790091054019  0.12555840930607323  0.5861886321344514  1.0000
  H   H9        1.0  0.12493339639253519  0.30122197718647925  0.5707226760745954  1.0000
  H   H10       1.0  0.8750648092559956  0.6987806659365673  0.4292735038365691  1.0000
  H   H11       1.0  0.3770327749295176  0.22762830938029308  0.6203975381274915  1.0000
  H   H12       1.0  0.6229657989068899  0.772373095504406  0.37959895661954596  1.0000
  H   H13       1.0  0.42092101505311774  0.4987109455162935  0.5891993453193435  1.0000
  H   H14       1.0  0.5790793774310289  0.5012892182175362  0.41080104654904653  1.0000
  H   H15       1.0  0.19790641886695678  0.5748533484031951  0.48913751192979044  1.0000
  H   H16       1.0  0.802093605429313  0.4251480535689821  0.5108625651027339  1.0000
  H   H17       1.0  0.5912710966282546  0.6728773316940176  0.9072068231965886  1.0000
  H   H18       1.0  0.4087366849558265  0.3271265925177146  0.09279339886322903  1.0000
  H   H19       1.0  0.6800419397120978  0.8506006890858654  0.8316732495235756  1.0000
  H   H20       1.0  0.31995940365903414  0.14940569300840417  0.16832192281614763  1.0000
  H   H21       1.0  0.7990071029249536  0.7334493803187879  0.6678583863639673  1.0000
  H   H22       1.0  0.20099432637560705  0.26655203248825626  0.3321407688205866  1.0000
  H   H23       1.0  0.6861841344165072  0.5641862734590289  0.7364401510995222  1.0000
  H   H24       1.0  0.31381663534663323  0.4358126492869657  0.2635614564314324  1.0000
  C   C1        1.0  0.07578011827665421  0.46224504885218903  0.8929305735111936  1.0000
  C   C2        1.0  0.9242231610544066  0.5377501700136162  0.10707105667942336  1.0000
  C   C3        1.0  0.9869644687347402  0.3525428376072311  0.9829493691324345  1.0000
  C   C4        1.0  0.013036727872375465  0.6474498858616182  0.017053833599163813  1.0000
  C   C5        1.0  0.08835956165773247  0.6101227242991312  0.9111043443135572  1.0000
  C   C6        1.0  0.9116440090228793  0.3898762228660642  0.08889451869477938  1.0000
  C   C7        1.0  0.17605551768794925  0.9360305702799748  0.576713343168336  1.0000
  C   C8        1.0  0.8239431602601216  0.06396585981854487  0.423288936076915  1.0000
  C   C9        1.0  0.004098450460986699  0.005953499361005801  0.6241840822962954  1.0000
  C   C10       1.0  0.9958948988194578  0.9940466156974558  0.3758191171585212  1.0000
  C   C11       1.0  0.16960475559542953  0.9307817893291738  0.4517968106343417  1.0000
  C   C12       1.0  0.8303882254971382  0.06921956396764266  0.5482060739846089  1.0000
  C   C13       1.0  0.14926867503989882  0.4270610955205995  0.7782950224340227  1.0000
  C   C14       1.0  0.8507328129167676  0.5729353562476405  0.22170541311530206  1.0000
  C   C15       1.0  0.24281696665940442  0.3172276299387774  0.6256780637716446  1.0000
  C   C16       1.0  0.7571830303635281  0.6827737802818274  0.37431931078081254  1.0000
  C   C17       1.0  0.2676115434528726  0.49467222647249537  0.5828910796187472  1.0000
  C   C18       1.0  0.7323902540355719  0.5053279480961945  0.41710839040168685  1.0000
  C   C19       1.0  0.3590977867414226  0.8624308423941611  0.6570276418044544  1.0000
  C   C20       1.0  0.6409033421184773  0.13756684486295964  0.3429733797356889  1.0000
  C   C21       1.0  0.5938133289120059  0.7693353422786371  0.8155195726652166  1.0000
  C   C22       1.0  0.4061873731039184  0.23066854425563574  0.18447985367427583  1.0000
  C   C23       1.0  0.6671948565738861  0.6986021521111991  0.7089917872034092  1.0000
  C   C24       1.0  0.33280441316441056  0.30140173183663416  0.2910058585039791  1.0000
  N   N1        1.0  0.1903050109124607  0.2863651449865471  0.7591619934019321  1.0000
  N   N2        1.0  0.8096932220094146  0.7136374898880715  0.24083688898929978  1.0000
  N   N3        1.0  0.3083752196573356  0.7839118571819055  0.1572002886077399  1.0000
  N   N4        1.0  0.6916215991691246  0.2160907696073265  0.8427986148047636  1.0000
  N   N5        1.0  0.3924086891526812  0.8668558181585266  0.7698376191716036  1.0000
  N   N6        1.0  0.6075920715193418  0.13314310733694862  0.23016308753265946  1.0000
  O   O1        1.0  0.1705210117937881  0.5605662661286742  0.6794935345486264  1.0000
  O   O2        1.0  0.8294807947857662  0.43943390569054214  0.3205068362984917  1.0000
  O   O3        1.0  0.20052064320043433  0.9338582194987807  0.1023131930999384  1.0000
  O   O4        1.0  0.7994751297184948  0.06614316096671759  0.8976860461697169  1.0000
  O   O5        1.0  0.42157074078883744  0.7147986194762904  0.09216283274043496  1.0000
  O   O6        1.0  0.5784264644077342  0.2852027635756399  0.9078381871613174  1.0000
  O   O7        1.0  0.2926787010066647  0.7137456898061172  0.27381564726231733  1.0000
  O   O8        1.0  0.7073188723777831  0.2862544550074587  0.7261856874753079  1.0000
  O   O9        1.0  0.5076018265117384  0.7758771424137902  0.6082807526280831  1.0000
  O   O10       1.0  0.4923985659724154  0.22412302132003953  0.391719639240307  1.0000
