data_image0
_chemical_formula_structural       Ni2H16C8O14
_chemical_formula_sum              "Ni2 H16 C8 O14"
_cell_length_a       5.731452271102484
_cell_length_b       8.585646511274197
_cell_length_c       8.813990127340224
_cell_angle_alpha    89.9999772981383
_cell_angle_beta     89.99916822920231
_cell_angle_gamma    117.28309785640064

_space_group_name_H-M_alt    "P 1"
_space_group_IT_number       1

loop_
  _space_group_symop_operation_xyz
  'x, y, z'

loop_
  _atom_site_type_symbol
  _atom_site_label
  _atom_site_symmetry_multiplicity
  _atom_site_fract_x
  _atom_site_fract_y
  _atom_site_fract_z
  _atom_site_occupancy
  Ni  Ni1       1.0  0.9518356502820068  0.6443776925611573  0.14909478699263445  1.0000
  Ni  Ni2       1.0  0.048170587990924225  0.3556242099390445  0.6490937368635838  1.0000
  H   H1        1.0  0.326513106744521  0.0873900496607973  0.3517370829728818  1.0000
  H   H2        1.0  0.6734888086481589  0.9126102755229724  0.851732130866196  1.0000
  H   H3        1.0  0.8789116859011656  0.9113139595271421  0.26542926323001126  1.0000
  H   H4        1.0  0.12109200196426427  0.08869202296928339  0.7654280032182681  1.0000
  H   H5        1.0  0.2697066649668399  0.9145261421147025  0.5766064668319828  1.0000
  H   H6        1.0  0.7302651236469513  0.0854735139300118  0.07659891314939668  1.0000
  H   H7        1.0  0.9530905559055397  0.8787042389445362  0.5217305988675773  1.0000
  H   H8        1.0  0.0468845977762911  0.12128603377813359  0.02173787579329199  1.0000
  H   H9        1.0  0.5253550843102275  0.5391731978979449  0.0009231539140869998  1.0000
  H   H10       1.0  0.4746211375157826  0.4607985698205396  0.5008956258157438  1.0000
  H   H11       1.0  0.48555859504317306  0.6315721089864181  0.14395835672715404  1.0000
  H   H12       1.0  0.5144452628734015  0.36842839139011113  0.6439442468370016  1.0000
  H   H13       1.0  0.14508755531890222  0.8326761183559198  0.9013680312629828  1.0000
  H   H14       1.0  0.8549190542066185  0.16732551743707086  0.40136383061732056  1.0000
  H   H15       1.0  0.05695646631373569  0.6291649500971915  0.8770299825727645  1.0000
  H   H16       1.0  0.9430529944648071  0.3708408003910861  0.37702812384002726  1.0000
  C   C1        1.0  0.4317507282945599  0.8861724734408369  0.28283873606984133  1.0000
  C   C2        1.0  0.568280478486983  0.11384303769082037  0.7828256942717572  1.0000
  C   C3        1.0  0.2301106199280412  0.9440717038063368  0.33657003768216487  1.0000
  C   C4        1.0  0.7698894989653196  0.0559310693266752  0.8365678510592855  1.0000
  C   C5        1.0  0.11909827787891904  0.8544745166926402  0.48942983736590406  1.0000
  C   C6        1.0  0.8808888839259764  0.14552131860061476  0.9894299731959318  1.0000
  C   C7        1.0  0.030011704362486586  0.6582577057517155  0.4898535575538147  1.0000
  C   C8        1.0  0.9699899600223318  0.341745497965988  0.9898560383264722  1.0000
  O   O1        1.0  0.6605337891134083  0.9582263577903305  0.3385752339008689  1.0000
  O   O2        1.0  0.33944343957215034  0.041763386212622315  0.8385778625315081  1.0000
  O   O3        1.0  0.3516656288295721  0.7599772209083966  0.18764619176846503  1.0000
  O   O4        1.0  0.6483380302697908  0.24002174887053934  0.6876538321374852  1.0000
  O   O5        1.0  0.030532192008457998  0.8949906185267122  0.22215055494712735  1.0000
  O   O6        1.0  0.9694831019854888  0.10501528727737512  0.7221511345783609  1.0000
  O   O7        1.0  0.09276509755300574  0.5987537596785514  0.605902933282209  1.0000
  O   O8        1.0  0.9072403408174023  0.40124460146530794  0.10589679401596189  1.0000
  O   O9        1.0  0.8990170393747619  0.5634479888367565  0.3770077410076738  1.0000
  O   O10       1.0  0.1009955284010857  0.43655051805964007  0.8770083866801526  1.0000
  O   O11       1.0  0.5552119831289629  0.5494459515124959  0.11047158748979057  1.0000
  O   O12       1.0  0.44478683554385867  0.45054687395076337  0.610450001658343  1.0000
  O   O13       1.0  0.0030002806710315456  0.7132791242655473  0.9235970249705613  1.0000
  O   O14       1.0  0.9970062123808318  0.28672985275125734  0.42359597134580435  1.0000
