data_image0
_chemical_formula_structural       La2H30C32N4O20
_chemical_formula_sum              "La2 H30 C32 N4 O20"
_cell_length_a       7.235880662421696
_cell_length_b       10.68223435199365
_cell_length_c       12.065989207513725
_cell_angle_alpha    91.19025932283375
_cell_angle_beta     104.12464325669791
_cell_angle_gamma    95.66187747699487

_space_group_name_H-M_alt    "P 1"
_space_group_IT_number       1

loop_
  _space_group_symop_operation_xyz
  'x, y, z'

loop_
  _atom_site_type_symbol
  _atom_site_label
  _atom_site_symmetry_multiplicity
  _atom_site_fract_x
  _atom_site_fract_y
  _atom_site_fract_z
  _atom_site_occupancy
  La  La1       1.0  0.4365022487449579  0.3259412783530919  0.17153680356856432  1.0000
  La  La2       1.0  0.5635016440575669  0.6740582628934606  0.8284620585554238  1.0000
  H   H1        1.0  0.7376203616474372  0.44025815257108286  0.4950984736353662  1.0000
  H   H2        1.0  0.2623771474171265  0.5597375077695049  0.5048980142490082  1.0000
  H   H3        1.0  0.8657575108056864  0.2729406877730725  0.8237832890331237  1.0000
  H   H4        1.0  0.1342461820667538  0.7270588179141839  0.17621388977254074  1.0000
  H   H5        1.0  0.944151565917089  0.0751062635420823  0.5263447218382356  1.0000
  H   H6        1.0  0.05585790427812037  0.9248924162468696  0.4736547279484783  1.0000
  H   H7        1.0  0.542792762021911  0.8720967640835656  0.08860218904831642  1.0000
  H   H8        1.0  0.45719148531074444  0.1279025508405311  0.9113970689526385  1.0000
  H   H9        1.0  0.7047116650600458  0.6080758171675528  0.3516762556059022  1.0000
  H   H10       1.0  0.29529024207896976  0.3919265971081742  0.6483265726118219  1.0000
  H   H11       1.0  0.5621906044741252  0.9746677588886642  0.43787724581343923  1.0000
  H   H12       1.0  0.4378095567828241  0.025333658491099705  0.5621237263556439  1.0000
  H   H13       1.0  0.007526864488973164  0.9830844682354608  0.7168087149610259  1.0000
  H   H14       1.0  0.992481502250435  0.016915168497831697  0.2831922867171173  1.0000
  H   H15       1.0  0.9759639735689946  0.0655981700413548  0.8346754148405964  1.0000
  H   H16       1.0  0.024040240446659263  0.9344023481253457  0.1653251512534339  1.0000
  H   H17       1.0  0.6519167605199313  0.6679372397630132  0.5453251269578488  1.0000
  H   H18       1.0  0.3480864926409595  0.3320661002900848  0.4546761906718757  1.0000
  H   H19       1.0  0.6064466017524737  0.8137535580531081  0.5744835062394031  1.0000
  H   H20       1.0  0.39355957939333314  0.18624891615005623  0.42551977821415227  1.0000
  H   H21       1.0  0.17176711940010847  0.2116721287904895  0.4310741209608224  1.0000
  H   H22       1.0  0.8282358125476534  0.7883302343424605  0.5689254926988668  1.0000
  H   H23       1.0  0.0388552014659993  0.22151951520663005  0.21734549874817333  1.0000
  H   H24       1.0  0.961144717224876  0.7784800194514218  0.7826554321174798  1.0000
  H   H25       1.0  0.8056015512043473  0.395443617614653  0.9535149916210699  1.0000
  H   H26       1.0  0.1943923262796901  0.6045539366387942  0.046484447967557706  1.0000
  H   H27       1.0  0.7818799915360161  0.4287037193816658  0.07528812079281982  1.0000
  H   H28       1.0  0.21812245527959112  0.5712948783078673  0.9247114102600095  1.0000
  H   H29       1.0  0.9913038316963851  0.28960032265017344  0.09977718252260102  1.0000
  H   H30       1.0  0.00869694788421071  0.7103963723418404  0.9002221551481926  1.0000
  C   C1        1.0  0.8452436944620844  0.25821622808348377  0.499334778513493  1.0000
  C   C2        1.0  0.15475975584427462  0.7417813948820611  0.5006623589887412  1.0000
  C   C3        1.0  0.7880443603548315  0.3633610143739929  0.5479686069383974  1.0000
  C   C4        1.0  0.21195511583987783  0.6366366020030584  0.45203059930550193  1.0000
  C   C5        1.0  0.7973506890594778  0.3673126741237667  0.6654267371689357  1.0000
  C   C6        1.0  0.2026471625362021  0.6326848867181738  0.33457063367802686  1.0000
  C   C7        1.0  0.8600330033894751  0.267918062062897  0.7328120515996802  1.0000
  C   C8        1.0  0.1399678974741576  0.732079574289969  0.2671873067228319  1.0000
  C   C9        1.0  0.9098206895067948  0.1588558120863581  0.684288832872227  1.0000
  C   C10       1.0  0.09018330326077964  0.8411437469398421  0.31571087091091954  1.0000
  C   C11       1.0  0.9023737283348725  0.1566997791345059  0.5661945613936227  1.0000
  C   C12       1.0  0.0976331350885502  0.8433007434245283  0.4338046255393024  1.0000
  C   C13       1.0  0.8505993760276243  0.2558247056185721  0.37570848625094316  1.0000
  C   C14       1.0  0.1494005492881811  0.7441794291658682  0.6242874979182957  1.0000
  C   C15       1.0  0.7313719043227283  0.47545038017644714  0.7197326265537854  1.0000
  C   C16       1.0  0.2686274932249262  0.5245481420021605  0.2802649170235015  1.0000
  C   C17       1.0  0.541926744524382  0.9348854234526133  0.2595608005387505  1.0000
  C   C18       1.0  0.45806580825576765  0.06511212860466742  0.74043932863043  1.0000
  C   C19       1.0  0.5669305443775771  0.8476068995383843  0.17789251700722286  1.0000
  C   C20       1.0  0.4330586193881204  0.15239442915346052  0.8221106051696411  1.0000
  C   C21       1.0  0.6231752659332275  0.7295091437889739  0.21154201583974702  1.0000
  C   C22       1.0  0.3768165685582403  0.2704931128764088  0.7884589061685576  1.0000
  C   C23       1.0  0.6575294586191592  0.6995157625869696  0.3266468563603269  1.0000
  C   C24       1.0  0.34246601023745893  0.3004903528124032  0.6733569773895385  1.0000
  C   C25       1.0  0.6346503630064221  0.7880784537296893  0.40692791127954564  1.0000
  C   C26       1.0  0.36534658506355566  0.2119200996158881  0.5930726947771774  1.0000
  C   C27       1.0  0.577197937415221  0.904873024993073  0.374576324235143  1.0000
  C   C28       1.0  0.42279451818451014  0.09513026193140209  0.6254288267206931  1.0000
  C   C29       1.0  0.4842247426535807  0.0621521191112322  0.2268353547039297  1.0000
  C   C30       1.0  0.5157657458160118  0.9378492117767792  0.7731670778923815  1.0000
  C   C31       1.0  0.6524782956811354  0.6346600563685527  0.12589148792558552  1.0000
  C   C32       1.0  0.34751052555343886  0.36533937182193205  0.874110751288683  1.0000
  N   N1        1.0  0.9619115672809003  0.0596161068591172  0.749254057236385  1.0000
  N   N2        1.0  0.038095638673652774  0.940386316201277  0.2507460126591212  1.0000
  N   N3        1.0  0.6796201762374497  0.7620565180174241  0.5274429422164744  1.0000
  N   N4        1.0  0.32038054879871686  0.23794775900420012  0.4725597752260668  1.0000
  O   O1        1.0  0.7491134397648481  0.3251468898782194  0.307776599556128  1.0000
  O   O2        1.0  0.2508934449765761  0.6748545562620264  0.6922217663693432  1.0000
  O   O3        1.0  0.9647446138942898  0.1847384583861925  0.3449551010206662  1.0000
  O   O4        1.0  0.035256208322294876  0.81526008376823  0.6550425946352335  1.0000
  O   O5        1.0  0.6459422345195946  0.5590665350251172  0.6572176831284224  1.0000
  O   O6        1.0  0.35406027624999575  0.44093483340803635  0.3427793849020589  1.0000
  O   O7        1.0  0.7532579310779112  0.48231787211193483  0.8278953736615907  1.0000
  O   O8        1.0  0.24673994183577017  0.5176806123112102  0.17210117617792522  1.0000
  O   O9        1.0  0.48331566664496256  0.09907723250776002  0.1273561780854919  1.0000
  O   O10       1.0  0.5166706089871981  0.900921056549578  0.8726374718068257  1.0000
  O   O11       1.0  0.44231142935446854  0.13401558158869883  0.3022071779600354  1.0000
  O   O12       1.0  0.5576981288973502  0.8659925451719348  0.6977948512426908  1.0000
  O   O13       1.0  0.6800863532477665  0.6737289727477886  0.03194666428118613  1.0000
  O   O14       1.0  0.3199023106927116  0.3262722670458161  0.9680522495998574  1.0000
  O   O15       1.0  0.6522434750369971  0.5196635473482941  0.15221703590475505  1.0000
  O   O16       1.0  0.3477442853777717  0.4803386849489399  0.8477851131860492  1.0000
  O   O17       1.0  0.8102326011662201  0.35915784031169556  0.028747339814032102  1.0000
  O   O18       1.0  0.18976400437263413  0.6408388125325217  0.9712523832800957  1.0000
  O   O19       1.0  0.09242507357680549  0.24362076168461752  0.1510734917850556  1.0000
  O   O20       1.0  0.9075742813348597  0.7563759133315813  0.848925693807125  1.0000
