data_image0
_chemical_formula_structural       Zn4H25C48N4ClO13
_chemical_formula_sum              "Zn4 H25 C48 N4 Cl1 O13"
_cell_length_a       17.941956673850427
_cell_length_b       19.196642901436398
_cell_length_c       19.26457252245298
_cell_angle_alpha    94.59925739387025
_cell_angle_beta     99.1290793378514
_cell_angle_gamma    103.47300765837204

_space_group_name_H-M_alt    "P 1"
_space_group_IT_number       1

loop_
  _space_group_symop_operation_xyz
  'x, y, z'

loop_
  _atom_site_type_symbol
  _atom_site_label
  _atom_site_symmetry_multiplicity
  _atom_site_fract_x
  _atom_site_fract_y
  _atom_site_fract_z
  _atom_site_occupancy
  Zn  Zn1       1.0  0.5653697813513929  0.45173455688434677  0.45021678422312306  1.0000
  Zn  Zn2       1.0  0.42998018774873253  0.4289180796018215  0.5435985992722294  1.0000
  Zn  Zn3       1.0  0.4413056976116678  0.5445633024539019  0.4313068231509333  1.0000
  Zn  Zn4       1.0  0.5672002800048758  0.5744270220749499  0.575882901309825  1.0000
  H   H1        1.0  0.07672171187896738  0.6508500179826129  0.6377543224766526  1.0000
  H   H2        1.0  0.047908561228688  0.33697454339226607  0.3239522469785214  1.0000
  H   H3        1.0  0.6038751338565405  0.5749399085673231  0.7991803394865471  1.0000
  H   H4        1.0  0.5987090342984587  0.5698399473012614  0.9286357197745616  1.0000
  H   H5        1.0  0.6302542421680429  0.46912866735005565  0.11689094137604879  1.0000
  H   H6        1.0  0.6202898024486316  0.46101541205389635  0.24533404816648385  1.0000
  H   H7        1.0  0.36907740312921067  0.4429362792598326  0.7439447804514359  1.0000
  H   H8        1.0  0.41835134009753  0.5396480235772075  0.0834418091669562  1.0000
  H   H9        1.0  0.361143271130146  0.4443102613362482  0.8736114898286402  1.0000
  H   H10       1.0  0.4115562655702829  0.5367111946084576  0.21268187119476775  1.0000
  H   H11       1.0  0.4385911071664381  0.21579856458640728  0.5799938013340551  1.0000
  H   H12       1.0  0.2007342270177475  0.522417382530172  0.5221374826179215  1.0000
  H   H13       1.0  0.4439051318527518  0.0857953276064052  0.57724443474374  1.0000
  H   H14       1.0  0.5624588213423962  0.9228290839983018  0.6314551570850213  1.0000
  H   H15       1.0  0.5687737853901708  0.7925497129593351  0.6233924470073333  1.0000
  H   H16       1.0  0.5385801303240427  0.23177221130367087  0.3915495170385697  1.0000
  H   H17       1.0  0.4405627234181324  0.8879316053673776  0.4158252278309078  1.0000
  H   H18       1.0  0.5365342199811707  0.0996335532934083  0.3848546487822375  1.0000
  H   H19       1.0  0.4421214000127164  0.7568914271316842  0.40949049776406093  1.0000
  H   H20       1.0  0.9260659517202683  0.3638236689948043  0.3469314645071222  1.0000
  H   H21       1.0  0.9547873677217921  0.6746626953048745  0.6631664301861733  1.0000
  H   H22       1.0  0.8093280178893493  0.6460574478770623  0.6392916424762589  1.0000
  H   H23       1.0  0.8003639735581344  0.4788725253282918  0.4752848235087583  1.0000
  H   H24       1.0  0.1462453509940431  0.5819364362586654  0.571424125108166  1.0000
  H   H25       1.0  0.8562939272539438  0.43036663317931806  0.4157078681264608  1.0000
  C   C1        1.0  0.4916041934535966  0.507569247927634  0.6876504928603849  1.0000
  C   C2        1.0  0.8406447103213777  0.6162297873965699  0.6089435314280323  1.0000
  C   C3        1.0  0.8362431795019489  0.521455629243114  0.5156934575473713  1.0000
  C   C4        1.0  0.918325799448425  0.5362040779420097  0.5274721373417179  1.0000
  C   C5        1.0  0.9612864836004532  0.5924525949800028  0.5823090014446137  1.0000
  C   C6        1.0  0.9598475583487056  0.4965242882348591  0.4867754302637053  1.0000
  C   C7        1.0  0.04243618115646797  0.5121690884967192  0.5034299068452553  1.0000
  C   C8        1.0  0.08284416426891276  0.5686409935065129  0.5587601732551875  1.0000
  C   C9        1.0  0.04417318108248481  0.607541006105258  0.596217582271251  1.0000
  C   C10       1.0  0.9195372635175971  0.44213786039083647  0.4295609497295203  1.0000
  C   C11       1.0  0.9583059173746378  0.40459526578809596  0.3908549284406106  1.0000
  C   C12       1.0  0.5105742903540076  0.4966993588043209  0.31264712829574387  1.0000
  C   C13       1.0  0.04104308779120908  0.417511494190606  0.4069399910222984  1.0000
  C   C14       1.0  0.08380588738105389  0.4713978338101299  0.46389686160767946  1.0000
  C   C15       1.0  0.08083006504149637  0.37776935515638843  0.36753545356476985  1.0000
  C   C16       1.0  0.16091192290695489  0.3903141913645171  0.3839298480838735  1.0000
  C   C17       1.0  0.16566654785576415  0.4822955529135342  0.4789905626201332  1.0000
  C   C18       1.0  0.5152323999612208  0.49822228951157405  0.2361138942205088  1.0000
  C   C19       1.0  0.4583662905385921  0.520885725446604  0.1907634644536031  1.0000
  C   C20       1.0  0.46211079924837845  0.522826757911801  0.11957652329022746  1.0000
  C   C21       1.0  0.5243011129748608  0.5036305739147764  0.0932339242395059  1.0000
  C   C22       1.0  0.5822773413644741  0.48275964171710933  0.13872445299922015  1.0000
  C   C23       1.0  0.49083069859651113  0.30965873018943296  0.4903876923331438  1.0000
  C   C24       1.0  0.5768385988202381  0.4785929897098597  0.2095357732991587  1.0000
  C   C25       1.0  0.5488559041599713  0.5429278270349939  0.8876127598971593  1.0000
  C   C26       1.0  0.5516556083482484  0.5453437965696252  0.8162157291311516  1.0000
  C   C27       1.0  0.4799659491790819  0.5053850543506327  0.9077839472591904  1.0000
  C   C28       1.0  0.487149971918832  0.5083533422391823  0.7643919595659128  1.0000
  C   C29       1.0  0.41846559198856426  0.47127377113217506  0.7847931868518003  1.0000
  C   C30       1.0  0.4141576939444319  0.47149432515887907  0.8561522802615543  1.0000
  C   C31       1.0  0.5061458567746513  0.7675776551208956  0.515867838951273  1.0000
  C   C32       1.0  0.46940423178694585  0.7940695276057851  0.4573035171796462  1.0000
  C   C33       1.0  0.4681750935855504  0.8661876791031842  0.460729623566742  1.0000
  C   C34       1.0  0.5070647394210823  0.6898386503911381  0.511299775023204  1.0000
  C   C35       1.0  0.5024407407445324  0.9124811949097733  0.523812846370113  1.0000
  C   C36       1.0  0.5373004632905632  0.8858229174869906  0.5830487200410346  1.0000
  C   C37       1.0  0.5405165479967451  0.8139691789665164  0.5785854961322058  1.0000
  C   C38       1.0  0.4639478533197233  0.11832839602742945  0.5368574835981121  1.0000
  C   C39       1.0  0.4614378905167841  0.1901610701029171  0.5384131332379666  1.0000
  C   C40       1.0  0.49223150997563875  0.0863726441081099  0.4815657944617726  1.0000
  C   C41       1.0  0.48950768237655495  0.23142194510004535  0.48659308486224967  1.0000
  C   C42       1.0  0.5172557006420179  0.19914714424812266  0.4313649717437044  1.0000
  C   C43       1.0  0.5166697828537251  0.12649084823473797  0.42781723856115406  1.0000
  C   C44       1.0  0.29147867868174154  0.4582037341588008  0.45793238527865304  1.0000
  C   C45       1.0  0.7107749512159742  0.5420454507207779  0.5408300410911622  1.0000
  C   C46       1.0  0.7976948685921669  0.5601283137708392  0.5553543449046643  1.0000
  C   C47       1.0  0.2041263290741782  0.4429862054999987  0.4403254942930488  1.0000
  C   C48       1.0  0.9208927230948587  0.6317181223035391  0.6218184965519455  1.0000
  N   N1        1.0  0.5336978681702431  0.505450929726315  0.021880740228475273  1.0000
  N   N2        1.0  0.47094239647636005  0.49997778113579716  0.9787120795179335  1.0000
  N   N3        1.0  0.5025978853212293  0.9862974481804443  0.5322899985902508  1.0000
  N   N4        1.0  0.496570349433874  0.0138167846561501  0.4746993519764687  1.0000
  Cl  Cl1       1.0  0.20940220822436828  0.34167692291421753  0.3353942043410001  1.0000
  O   O1        1.0  0.5010148729375884  0.4999491748629409  0.5010404434775069  1.0000
  O   O2        1.0  0.532218822911801  0.3468823071344502  0.4516710316697967  1.0000
  O   O3        1.0  0.5479403522574982  0.6699225716734462  0.5628936681288721  1.0000
  O   O4        1.0  0.43936016792562776  0.4596688475635202  0.6449860627355335  1.0000
  O   O5        1.0  0.46038358128082274  0.5258933362356898  0.3351032517288957  1.0000
  O   O6        1.0  0.547149666580033  0.5541621118959768  0.6708473739182991  1.0000
  O   O7        1.0  0.5569638302057597  0.4667168841285089  0.3496136100382117  1.0000
  O   O8        1.0  0.4511695690747928  0.3331991793417117  0.5322607995058988  1.0000
  O   O9        1.0  0.46647514754785374  0.6494139470565086  0.455787285413372  1.0000
  O   O10       1.0  0.31974576575785096  0.42164984123028393  0.5026392826609439  1.0000
  O   O11       1.0  0.6781762099189591  0.5806053609938786  0.5773660855828169  1.0000
  O   O12       1.0  0.32841232547789895  0.5075444351269878  0.4269455527032946  1.0000
  O   O13       1.0  0.6757274526725965  0.4894238263797632  0.4929837106521901  1.0000
