data_image0
_chemical_formula_structural       Tl8H40C56O24
_chemical_formula_sum              "Tl8 H40 C56 O24"
_cell_length_a       10.334201242002404
_cell_length_b       10.540630052003298
_cell_length_c       13.002038402004658
_cell_angle_alpha    89.99992446393829
_cell_angle_beta     89.99993927392063
_cell_angle_gamma    89.9999502676628

_space_group_name_H-M_alt    "P 1"
_space_group_IT_number       1

loop_
  _space_group_symop_operation_xyz
  'x, y, z'

loop_
  _atom_site_type_symbol
  _atom_site_label
  _atom_site_symmetry_multiplicity
  _atom_site_fract_x
  _atom_site_fract_y
  _atom_site_fract_z
  _atom_site_occupancy
  Tl  Tl1       1.0  0.8996645320449231  0.6336151191124275  0.39937819936518804  1.0000
  Tl  Tl2       1.0  0.10033574633170161  0.866384818730957  0.8993792404991227  1.0000
  Tl  Tl3       1.0  0.3996639433799559  0.3663848684120837  0.1006215510632771  1.0000
  Tl  Tl4       1.0  0.600335244481208  0.13361555937702724  0.6006216529714835  1.0000
  Tl  Tl5       1.0  0.10033423341429429  0.3663845893502257  0.6006209689197493  1.0000
  Tl  Tl6       1.0  0.8996639867876653  0.13361488973065866  0.10062069689557522  1.0000
  Tl  Tl7       1.0  0.6003348220782314  0.6336148400493116  0.8993791554420059  1.0000
  Tl  Tl8       1.0  0.39966448863773246  0.8663850977944775  0.39937828442270984  1.0000
  H   H1        1.0  0.5675990400233601  0.17332639719874274  0.9390547329271258  1.0000
  H   H2        1.0  0.4323996945275966  0.3266734811660826  0.4390561843004051  1.0000
  H   H3        1.0  0.06760003049832619  0.826674008644304  0.5609446497767366  1.0000
  H   H4        1.0  0.9324007011899624  0.6733255299147205  0.06094353867496951  1.0000
  H   H5        1.0  0.4324016607566603  0.8266733112624609  0.0609452044671741  1.0000
  H   H6        1.0  0.5675990709316211  0.6733262272965705  0.560942983984532  1.0000
  H   H7        1.0  0.9324006702811827  0.1733256998162744  0.43905605672773623  1.0000
  H   H8        1.0  0.06759903192991601  0.32667417854751335  0.9390556296095626  1.0000
  H   H9        1.0  0.4736295908777137  0.47741098440956625  0.6212975108386374  1.0000
  H   H10       1.0  0.5263705369494431  0.022589409812454202  0.12129843984793352  1.0000
  H   H11       1.0  0.973629338309813  0.5225881287355278  0.8787023004640633  1.0000
  H   H12       1.0  0.026371935423064503  0.9774108939648656  0.3787016236379515  1.0000
  H   H13       1.0  0.5263701422420652  0.522587775342153  0.3787024265565649  1.0000
  H   H14       1.0  0.4736291961699166  0.9774102986491616  0.8787014975467644  1.0000
  H   H15       1.0  0.0263723301308687  0.4774115797252705  0.12129763692982463  1.0000
  H   H16       1.0  0.9736297330170983  0.022588814495307502  0.6212990828661092  1.0000
  H   H17       1.0  0.3754487582063887  0.361520301316233  0.7680176852374174  1.0000
  H   H18       1.0  0.6245492377768187  0.13847890600543883  0.26801994605771284  1.0000
  H   H19       1.0  0.8754495667625547  0.6384788950075659  0.7319814392927739  1.0000
  H   H20       1.0  0.12454996817257317  0.8615203658855465  0.23198003509264  1.0000
  H   H21       1.0  0.6245509749138164  0.6384775097255969  0.2319822521582965  1.0000
  H   H22       1.0  0.37544952768229933  0.8615198537466924  0.7319799913379016  1.0000
  H   H23       1.0  0.12455016635629328  0.3615208134534242  0.26801926721210384  1.0000
  H   H24       1.0  0.8754497649462677  0.13847934257544384  0.7680206714122306  1.0000
  H   H25       1.0  0.7556706525941691  0.27741786164550325  0.8855199156683184  1.0000
  H   H26       1.0  0.24433008898453323  0.2225840010494481  0.3855200979837647  1.0000
  H   H27       1.0  0.2556697286063637  0.7225814361522183  0.6144823857536751  1.0000
  H   H28       1.0  0.7443299637118342  0.777417066783052  0.11448055182341932  1.0000
  H   H29       1.0  0.24433198350581614  0.7225837442340436  0.11448079083432113  1.0000
  H   H30       1.0  0.7556686764737462  0.777416656122469  0.6144798394108337  1.0000
  H   H31       1.0  0.7443300045123847  0.2774173235982573  0.3855190898618802  1.0000
  H   H32       1.0  0.25566880174644513  0.22258359038886513  0.8855193855711789  1.0000
  H   H33       1.0  0.8531954150088408  0.38778705491830595  0.7369838753827056  1.0000
  H   H34       1.0  0.14680455786252372  0.11221599762428984  0.2369850267573597  1.0000
  H   H35       1.0  0.35319051957382186  0.612214057680042  0.7630160369215205  1.0000
  H   H36       1.0  0.6468089737922754  0.8877851528302686  0.2630149357262895  1.0000
  H   H37       1.0  0.14680528577085278  0.6122145509633086  0.2630152929004055  1.0000
  H   H38       1.0  0.8531942075962746  0.8877846595482525  0.7630141415270657  1.0000
  H   H39       1.0  0.6468092135450261  0.3877856507809484  0.2369846695833502  1.0000
  H   H40       1.0  0.35319366230864807  0.112215504340007  0.7369850016666819  1.0000
  C   C1        1.0  0.7329462177995438  0.5002463583697789  0.5760821719393192  1.0000
  C   C2        1.0  0.26705449361235617  0.9997531556137176  0.0760820384582743  1.0000
  C   C3        1.0  0.2329460451587764  0.49975200997105423  0.9239186103200794  1.0000
  C   C4        1.0  0.7670517420055134  0.0002497903876275  0.42391859229146434  1.0000
  C   C5        1.0  0.2670515799980747  0.4997542988025431  0.4239177654556841  1.0000
  C   C6        1.0  0.7329452395070106  0.0002465528478979  0.9239178989364235  1.0000
  C   C7        1.0  0.7670536879610096  0.5002467497806721  0.0760813270751228  1.0000
  C   C8        1.0  0.23294702345267376  0.9997499180737751  0.5760821142138184  1.0000
  C   C9        1.0  0.671017835960498  0.4402252299360044  0.6680216600734781  1.0000
  C   C10       1.0  0.3289812616224594  0.059775088433482906  0.16802194569918072  1.0000
  C   C11       1.0  0.1710167654309771  0.5597731908713897  0.8319784050115759  1.0000
  C   C12       1.0  0.8289826355627595  0.9402278051019266  0.33197863311472997  1.0000
  C   C13       1.0  0.328981897158954  0.5597754272361257  0.3319775082105423  1.0000
  C   C14       1.0  0.6710184714969926  0.9402255687386472  0.8319772225848328  1.0000
  C   C15       1.0  0.8289839353490436  0.44022651758981374  0.16802153238272416  1.0000
  C   C16       1.0  0.17101903287707637  0.05977380077865041  0.668021304278149  1.0000
  C   C17       1.0  0.5357795121464405  0.4346942992462601  0.6794853068653312  1.0000
  C   C18       1.0  0.4642205377414257  0.06530600051121382  0.17948701137360965  1.0000
  C   C19       1.0  0.0357784520531581  0.5653051848451797  0.820514102524939  1.0000
  C   C20       1.0  0.9642199966370413  0.9346939323209826  0.32051345402592807  1.0000
  C   C21       1.0  0.46422022097291915  0.5653054092153555  0.32051463052936674  1.0000
  C   C22       1.0  0.5357791953778418  0.9346927592398799  0.8205136951317726  1.0000
  C   C23       1.0  0.964220313405967  0.43469357490695165  0.17948583487067546  1.0000
  C   C24       1.0  0.035779736482830095  0.0653057761412583  0.6794857142585968  1.0000
  C   C25       1.0  0.48010706579916723  0.36891260989053626  0.7613309935541964  1.0000
  C   C26       1.0  0.5198909391400407  0.13108850570684893  0.2613325809479151  1.0000
  C   C27       1.0  0.9801088396336226  0.631087446477139  0.7386672740945457  1.0000
  C   C28       1.0  0.0198926216669193  0.8689108548499507  0.23866748797239276  1.0000
  C   C29       1.0  0.5198926673192547  0.6310880472803434  0.23866971295016273  1.0000
  C   C30       1.0  0.4801078263186653  0.8689112027551714  0.7386673564471877  1.0000
  C   C31       1.0  0.019892828807996896  0.3689113132743885  0.2613318941896736  1.0000
  C   C32       1.0  0.9801080791130089  0.1310879049007383  0.7613332185325845  1.0000
  C   C33       1.0  0.558360793901926  0.3075072693912446  0.8347317920470729  1.0000
  C   C34       1.0  0.44164001570553063  0.1924918296251832  0.3347318411062405  1.0000
  C   C35       1.0  0.05835886098581258  0.6924921955697628  0.6652675984060539  1.0000
  C   C36       1.0  0.9416407633079871  0.807506224918086  0.16526710501029385  1.0000
  C   C37       1.0  0.4416418421983863  0.6924924390678912  0.16526968356675556  1.0000
  C   C38       1.0  0.5583597174147671  0.8075069301271612  0.6652673271787963  1.0000
  C   C39       1.0  0.9416399044733055  0.3075065641823684  0.3347323389895608  1.0000
  C   C40       1.0  0.05835896981221111  0.19249158612374376  0.83473283238542  1.0000
  C   C41       1.0  0.6938826372499703  0.319028351340144  0.8268160471561856  1.0000
  C   C42       1.0  0.30611818295950854  0.1809707605262361  0.32681699131372716  1.0000
  C   C43       1.0  0.1938787686569583  0.6809700500993117  0.6731816914242473  1.0000
  C   C44       1.0  0.8061218126966098  0.8190293062499452  0.17318129934407273  1.0000
  C   C45       1.0  0.3061190311911375  0.6809704084107582  0.17318389023821376  1.0000
  C   C46       1.0  0.6938815501603628  0.8190289479360046  0.673182176970798  1.0000
  C   C47       1.0  0.8061209644624084  0.3190296583623039  0.3268182459704505  1.0000
  C   C48       1.0  0.1938808234057632  0.1809704022116847  0.8268170998290643  1.0000
  C   C49       1.0  0.748354218554553  0.38255401009171663  0.7437251728090146  1.0000
  C   C50       1.0  0.2516457452880445  0.11745092892857663  0.24372392332585954  1.0000
  C   C51       1.0  0.2483512628165556  0.6174462426164666  0.7562755965288093  1.0000
  C   C52       1.0  0.751648239577463  0.882552978835932  0.2562751821231757  1.0000
  C   C53       1.0  0.2516464822227533  0.6174494932078075  0.25627630280359176  1.0000
  C   C54       1.0  0.7483530201707538  0.8825497282439657  0.7562752449585662  1.0000
  C   C55       1.0  0.7516484703027118  0.3825525171346342  0.243725109976566  1.0000
  C   C56       1.0  0.24835246120181148  0.11744957575557181  0.7437239861594238  1.0000
  O   O1        1.0  0.8489823059671906  0.4695337409231756  0.5550831246801593  1.0000
  O   O2        1.0  0.151016942890017  0.0304667607947948  0.055082821820988705  1.0000
  O   O3        1.0  0.3489820778865962  0.5304654778214938  0.9449183293767337  1.0000
  O   O4        1.0  0.6510171718318746  0.9695353348020816  0.4449179062414289  1.0000
  O   O5        1.0  0.15101742715174987  0.5304669162483295  0.44491681271402683  1.0000
  O   O6        1.0  0.8489818225682626  0.9695338963771221  0.9449171155736097  1.0000
  O   O7        1.0  0.651017655232252  0.4695342306394963  0.05508237712813721  1.0000
  O   O8        1.0  0.3489825612870661  0.030465322369423103  0.5550820311527644  1.0000
  O   O9        1.0  0.6677297617310954  0.5790434281670828  0.5210653991264139  1.0000
  O   O10       1.0  0.3322719910323356  0.9209561751313374  0.0210660644223282  1.0000
  O   O11       1.0  0.1677286178098001  0.4209549954241183  0.9789369760466898  1.0000
  O   O12       1.0  0.8322710309827883  0.07904576690539501  0.47893681896385953  1.0000
  O   O13       1.0  0.3322690037266725  0.42095722900420907  0.4789353073783573  1.0000
  O   O14       1.0  0.6677267744259439  0.0790444820405796  0.9789338729722702  1.0000
  O   O15       1.0  0.8322720829696095  0.5790437643259454  0.021064499568460304  1.0000
  O   O16       1.0  0.16772870213512187  0.9209548902648591  0.5210646566506797  1.0000
  O   O17       1.0  0.5017429492444521  0.23805597605569068  0.9098231555606092  1.0000
  O   O18       1.0  0.4982558244608127  0.2619439497652182  0.4098238518938473  1.0000
  O   O19       1.0  0.0017429904681093998  0.7619444855814805  0.5901755132628496  1.0000
  O   O20       1.0  0.9982557667452455  0.7380569029439314  0.09017427763120622  1.0000
  O   O21       1.0  0.4982567838748225  0.7619427836954032  0.0901775509447731  1.0000
  O   O22       1.0  0.5017448763193926  0.7380576561170146  0.5901745472790836  1.0000
  O   O23       1.0  0.9982557749892322  0.23805712029970044  0.40982519324141725  1.0000
  O   O24       1.0  0.0017429987140645002  0.261943754229229  0.9098241215430464  1.0000
