data_image0
_chemical_formula_structural       Zn2H48C68N4O12
_chemical_formula_sum              "Zn2 H48 C68 N4 O12"
_cell_length_a       8.944060065129916
_cell_length_b       9.867876731662797
_cell_length_c       17.122
_cell_angle_alpha    80.01293415928457
_cell_angle_beta     84.0908653953902
_cell_angle_gamma    73.89223246861627

_space_group_name_H-M_alt    "P 1"
_space_group_IT_number       1

loop_
  _space_group_symop_operation_xyz
  'x, y, z'

loop_
  _atom_site_type_symbol
  _atom_site_label
  _atom_site_symmetry_multiplicity
  _atom_site_fract_x
  _atom_site_fract_y
  _atom_site_fract_z
  _atom_site_occupancy
  Zn  Zn1       1.0  0.0725703656903249  0.1422538903811201  0.0738536181910803  1.0000
  Zn  Zn2       1.0  0.26013642372250706  0.2844832367505461  0.2313553998424851  1.0000
  H   H1        1.0  0.5077390390221623  0.997262678940757  0.6465140103864897  1.0000
  H   H2        1.0  0.666628492665609  0.1660263664024271  0.5906996510520984  1.0000
  H   H3        1.0  0.6181484463763738  0.3963399022150753  0.6425986439943897  1.0000
  H   H4        1.0  0.4108700123296245  0.4595055170040183  0.7468250211879237  1.0000
  H   H5        1.0  0.29607041328606704  0.9364607591909717  0.7365384084475012  1.0000
  H   H6        1.0  0.0829527241138024  0.0001856807841136  0.8377449646537656  1.0000
  H   H7        1.0  0.8535967365457467  0.1621046601862233  0.8426982987796734  1.0000
  H   H8        1.0  0.7630788955019483  0.2906629920425274  0.9049358446341458  1.0000
  H   H9        1.0  0.9347837915817155  0.425805521818269  0.7501419226253745  1.0000
  H   H10       1.0  0.680655744509245  0.5989389803023002  0.7263859526080338  1.0000
  H   H11       1.0  0.6115831540081232  0.8312725949904021  0.7794386999843682  1.0000
  H   H12       1.0  0.7980632090937192  0.8841884170700566  0.8598885160841333  1.0000
  H   H13       1.0  0.2955672207108008  0.6324938456797753  0.9565282225947556  1.0000
  H   H14       1.0  0.04437113426283193  0.8084253214968342  0.9273232322966152  1.0000
  H   H15       1.0  0.47537388426401617  0.4479452874965019  0.9978417430186397  1.0000
  H   H16       1.0  0.5456572510782608  0.2642152187466564  0.9859797257343672  1.0000
  H   H17       1.0  0.6499313418787764  0.6294717308486781  0.4996250012403607  1.0000
  H   H18       1.0  0.8261052117680875  0.7007347352344908  0.5801631006558167  1.0000
  H   H19       1.0  0.08031525702948981  0.5313661147180184  0.6169136133290465  1.0000
  H   H20       1.0  0.16321433876309044  0.2950104835050595  0.5732722437658354  1.0000
  H   H21       1.0  0.6022867991730649  0.45988754988167807  0.42305615313528483  1.0000
  H   H22       1.0  0.6886254807557249  0.2317210815267075  0.3708619468770777  1.0000
  H   H23       1.0  0.8065621453433991  0.0570349475203429  0.3136064885960437  1.0000
  H   H24       1.0  0.9651348991603613  0.9023808653894534  0.32336630286405205  1.0000
  H   H25       1.0  0.9435371572851564  0.010743874335972198  0.585373412358905  1.0000
  H   H26       1.0  0.9850531197944365  0.7960188571513811  0.6881286772075939  1.0000
  H   H27       1.0  0.2506756772480685  0.6358873220790997  0.7075280339043815  1.0000
  H   H28       1.0  0.4782312097256137  0.6893431124160045  0.6243231126700053  1.0000
  H   H29       1.0  0.5436577680223706  0.0739681813267907  0.4211642510381139  1.0000
  H   H30       1.0  0.5865734687120465  0.8532971105267677  0.5195647015431604  1.0000
  H   H31       1.0  0.4207460734013182  0.329678366456271  0.4456157674817689  1.0000
  H   H32       1.0  0.230890977619616  0.4457555348010942  0.433026156477787  1.0000
  H   H33       1.0  0.7998050058536635  0.2644542560779328  0.1888194300862764  1.0000
  H   H34       1.0  0.5752973812967281  0.4760652549803411  0.19105616763346941  1.0000
  H   H35       1.0  0.7530490085146582  0.6443283278396805  0.9600247434706192  1.0000
  H   H36       1.0  0.9745701895308443  0.427606838850366  0.9706723495664916  1.0000
  H   H37       1.0  0.3649603354924338  0.617032185443982  0.16482824510685387  1.0000
  H   H38       1.0  0.1524030621860035  0.8426428751900231  0.1601848170011664  1.0000
  H   H39       1.0  0.389516400927981  0.0533352045403248  0.9809787392182585  1.0000
  H   H40       1.0  0.6153572721309288  0.8441656710459498  0.9805057649893952  1.0000
  H   H41       1.0  0.3199696698431893  0.9649776993856777  0.31027227234456234  1.0000
  H   H42       1.0  0.5285191601257466  0.7398738968376506  0.3054619515742019  1.0000
  H   H43       1.0  0.793617251226479  0.9847260246202367  0.14042287599869502  1.0000
  H   H44       1.0  0.5695038609558195  0.197309310001863  0.150858893482237  1.0000
  H   H45       1.0  0.7704571113147124  0.6237668488264134  0.3462604861312641  1.0000
  H   H46       1.0  0.9940053279195598  0.4079758980195578  0.3415945209000171  1.0000
  H   H47       1.0  0.12202683326503211  0.5490346017443102  0.1091916802581849  1.0000
  H   H48       1.0  0.9031874091461063  0.7712454123053689  0.10282251783372942  1.0000
  C   C1        1.0  0.486687247122454  0.0990916451221651  0.6678914790760899  1.0000
  C   C2        1.0  0.5751760488300661  0.1923845006990703  0.6371931471622716  1.0000
  C   C3        1.0  0.5465311973717064  0.3235541019733361  0.6661990907772122  1.0000
  C   C4        1.0  0.4290544019523566  0.3598088086370694  0.7237495194492993  1.0000
  C   C5        1.0  0.33197124271112705  0.2685584416854141  0.7548606705615128  1.0000
  C   C6        1.0  0.3641610849708385  0.1338171531443066  0.7266535914525178  1.0000
  C   C7        1.0  0.27158382741969694  0.0390111058899691  0.7576506178670072  1.0000
  C   C8        1.0  0.15144739937081653  0.075111078566934  0.8135887229565384  1.0000
  C   C9        1.0  0.11721418949884571  0.2093316072077727  0.839923516981564  1.0000
  C   C10       1.0  0.2037355766010123  0.3071960517452723  0.8111360618009726  1.0000
  C   C11       1.0  0.8632440507128011  0.197686007224803  0.8988958681710956  1.0000
  C   C12       1.0  0.8479901861036367  0.0792398081861165  0.9678690070730838  1.0000
  C   C13       1.0  0.9051484761651876  0.5251735538547209  0.7748373579299823  1.0000
  C   C14       1.0  0.7629085490249281  0.6230081187258136  0.7612382441425325  1.0000
  C   C15       1.0  0.7235924537138416  0.7541222291910401  0.7911950729303214  1.0000
  C   C16       1.0  0.8277849424287994  0.7842772153835255  0.8353770532686653  1.0000
  C   C17       1.0  0.9735390719931444  0.6840917610445985  0.8521228381126491  1.0000
  C   C18       1.0  0.014904019965335611  0.5514505861996781  0.8207741011606159  1.0000
  C   C19       1.0  0.1602308846596117  0.44867947358541466  0.8388882062522782  1.0000
  C   C20       1.0  0.258142011752888  0.4806720592620692  0.8870463060494131  1.0000
  C   C21       1.0  0.21699608465913664  0.6108150805689974  0.9185383982124408  1.0000
  C   C22       1.0  0.07750945352658788  0.7098437649655125  0.901511601432567  1.0000
  C   C23       1.0  0.4424315980834592  0.3567098603780607  0.9826903928305342  1.0000
  C   C24       1.0  0.3190984796666214  0.3167522093414874  0.04441721125621708  1.0000
  C   C25       1.0  0.7632611258342552  0.5580070387145994  0.5154891856326174  1.0000
  C   C26       1.0  0.8601145131161446  0.5968804847128979  0.5600506519739028  1.0000
  C   C27       1.0  0.005092135592356311  0.5006220722448873  0.5809113465850045  1.0000
  C   C28       1.0  0.05198294219601961  0.3687396275005739  0.5560882687196624  1.0000
  C   C29       1.0  0.9575062573100088  0.327804484520037  0.5072900779816435  1.0000
  C   C30       1.0  0.8088897141044243  0.4238644106326177  0.4880250731543541  1.0000
  C   C31       1.0  0.7137448219012157  0.3850998119905213  0.43929239671169285  1.0000
  C   C32       1.0  0.7626554001455261  0.2577259954811595  0.4095916394786769  1.0000
  C   C33       1.0  0.9096117861443319  0.163040534023402  0.4280370257568152  1.0000
  C   C34       1.0  0.007224219142180687  0.1974298957984431  0.47526908461421163  1.0000
  C   C35       1.0  0.9312171048812915  0.0174443895282295  0.32583699274681527  1.0000
  C   C36       1.0  0.024449450335026802  0.0904692271012379  0.2594663510237396  1.0000
  C   C37       1.0  0.06018168549906723  0.9400612589932749  0.5937989433792126  1.0000
  C   C38       1.0  0.0834007473002814  0.8204401487861404  0.6508572808118629  1.0000
  C   C39       1.0  0.23497804335237754  0.7296027615095042  0.6619635524359068  1.0000
  C   C40       1.0  0.3611508281303202  0.7597428078687898  0.6158941654464769  1.0000
  C   C41       1.0  0.34148107818104023  0.8832055894713874  0.5572348097310993  1.0000
  C   C42       1.0  0.18737542862512407  0.9750151330372603  0.5458829135088691  1.0000
  C   C43       1.0  0.16522305032065532  0.101284599210409  0.48855913781135024  1.0000
  C   C44       1.0  0.29345978014659124  0.1347594297671435  0.44545333866641806  1.0000
  C   C45       1.0  0.44577080541331077  0.0447383976620372  0.4565214906820287  1.0000
  C   C46       1.0  0.46877344083361544  0.9215892223667624  0.510929554909225  1.0000
  C   C47       1.0  0.32629579558524563  0.3704427684858942  0.40424489694515126  1.0000
  C   C48       1.0  0.3865348766575424  0.4503719432613024  0.328528590456628  1.0000
  C   C49       1.0  0.7858998346098716  0.3523036767136531  0.13975700915581507  1.0000
  C   C50       1.0  0.6600875350331066  0.4717284348272415  0.1404071159534226  1.0000
  C   C51       1.0  0.6433481734831759  0.5812043311575295  0.07501011753321761  1.0000
  C   C52       1.0  0.758829805654898  0.5644930605872673  0.012919424094874905  1.0000
  C   C53       1.0  0.8831404830759266  0.44303328376503254  0.017840822628102194  1.0000
  C   C54       1.0  0.5100768791447834  0.7092685813871356  0.0721292757383836  1.0000
  C   C55       1.0  0.3759057853092785  0.7109685209796268  0.12287660048157528  1.0000
  C   C56       1.0  0.25659465623166977  0.8360245290803974  0.12056833233431519  1.0000
  C   C57       1.0  0.3887404816896023  0.9545742398205732  0.020668235210486316  1.0000
  C   C58       1.0  0.5140321367614789  0.8344590479867477  0.0197057221680339  1.0000
  C   C59       1.0  0.42723747605367635  0.9644217241642749  0.2737957603826899  1.0000
  C   C60       1.0  0.54649879410335  0.8395727394664831  0.2723236043726515  1.0000
  C   C61       1.0  0.6832918028164416  0.8438348604535618  0.22492417097371495  1.0000
  C   C62       1.0  0.6915462184019248  0.9743460419358884  0.17917599132184137  1.0000
  C   C63       1.0  0.5672766661205698  0.0937421177039823  0.1846598513104425  1.0000
  C   C64       1.0  0.8157964044019579  0.715677769831899  0.2243249785081929  1.0000
  C   C65       1.0  0.8442254933284586  0.6114991115035764  0.29196708179777897  1.0000
  C   C66       1.0  0.969191943441132  0.4912686695278836  0.2901697761963717  1.0000
  C   C67       1.0  0.040647939803221796  0.5703953618340236  0.1602177365893809  1.0000
  C   C68       1.0  0.9186610828491697  0.6939018958052898  0.15723165613681536  1.0000
  N   N1        1.0  0.8960948582088264  0.3363233908394747  0.07976869554784828  1.0000
  N   N2        1.0  0.26252759740653897  0.9568525643842704  0.07108512288191798  1.0000
  N   N3        1.0  0.4368635165352543  0.0902920833646732  0.2312676516589818  1.0000
  N   N4        1.0  0.06585030016888276  0.4700402336751281  0.22517836549792491  1.0000
  O   O1        1.0  0.9996088044720324  0.247807013364266  0.8966391729907386  1.0000
  O   O2        1.0  0.9422878409921651  0.0448621848514463  0.02433744527461811  1.0000
  O   O3        1.0  0.7395109294761255  0.0237468648786674  0.9643732343272758  1.0000
  O   O4        1.0  0.3968531707650058  0.3797364118700841  0.9031390721723298  1.0000
  O   O5        1.0  0.2242894697299675  0.2596991205951014  0.021672657426023492  1.0000
  O   O6        1.0  0.3276243861544046  0.3433429781837418  0.11337138468665132  1.0000
  O   O7        1.0  0.9612995796490722  0.031194371731146503  0.403550406124829  1.0000
  O   O8        1.0  0.01487200933032541  0.0625562830203776  0.19071256025996772  1.0000
  O   O9        1.0  0.09838478214416571  0.17020845256876527  0.2785616055341436  1.0000
  O   O10       1.0  0.2706509750287154  0.2551766196578882  0.3877490409633282  1.0000
  O   O11       1.0  0.3936666576869214  0.4016830268475999  0.2627790625134168  1.0000
  O   O12       1.0  0.4283061911869412  0.5579675548696983  0.3361120339715242  1.0000
