data_image0
_chemical_formula_structural       Ga4H20C16O28
_chemical_formula_sum              "Ga4 H20 C16 O28"
_cell_length_a       8.694900135324048
_cell_length_b       10.647821514080048
_cell_length_c       10.647558096067234
_cell_angle_alpha    60.17446643496758
_cell_angle_beta     65.95144179243482
_cell_angle_gamma    65.95192919569516

_space_group_name_H-M_alt    "P 1"
_space_group_IT_number       1

loop_
  _space_group_symop_operation_xyz
  'x, y, z'

loop_
  _atom_site_type_symbol
  _atom_site_label
  _atom_site_symmetry_multiplicity
  _atom_site_fract_x
  _atom_site_fract_y
  _atom_site_fract_z
  _atom_site_occupancy
  Ga  Ga1       1.0  0.907916467722842  0.09205046359635109  0.09206456767743988  1.0000
  Ga  Ga2       1.0  0.592092334461384  0.40793152234158486  0.40794553517257975  1.0000
  Ga  Ga3       1.0  0.09208859971332109  0.9079472732523616  0.9079234904989234  1.0000
  Ga  Ga4       1.0  0.4079190832800631  0.5920592295251836  0.592061573616178  1.0000
  H   H1        1.0  0.6824470792123732  0.9944170914882735  0.3544851095330301  1.0000
  H   H2        1.0  0.9686144611002024  0.35439975466043466  0.9944988031190505  1.0000
  H   H3        1.0  0.817540447708545  0.14549970918299948  0.5055869045434634  1.0000
  H   H4        1.0  0.53138831199238  0.5055048959141999  0.14559528047428216  1.0000
  H   H5        1.0  0.3175480966330467  0.0055959715335944585  0.6455005818052086  1.0000
  H   H6        1.0  0.031386825317049685  0.6455918323222108  0.005507178724414501  1.0000
  H   H7        1.0  0.1824390289864793  0.8544818357395986  0.4944213904695615  1.0000
  H   H8        1.0  0.4686188148576062  0.4945118370963472  0.8544060215508082  1.0000
  H   H9        1.0  0.10918619181359905  0.17447074183523642  0.8257480951949389  1.0000
  H   H10       1.0  0.8908249816233323  0.8255340178386137  0.17424102214614834  1.0000
  H   H11       1.0  0.3908287071404574  0.67423571310097  0.32553340597817026  1.0000
  H   H12       1.0  0.6091994422697341  0.3257648270777409  0.6744736244460158  1.0000
  H   H13       1.0  0.4421073104513907  0.12255795131577685  0.2535587111139037  1.0000
  H   H14       1.0  0.18127051118850807  0.2539424007048297  0.1229473309605069  1.0000
  H   H15       1.0  0.05788784250002279  0.2464190059530084  0.3774640205227654  1.0000
  H   H16       1.0  0.318732425735199  0.3770732085602831  0.24601915452600306  1.0000
  H   H17       1.0  0.5578909064569189  0.8774703930577632  0.7464223833052871  1.0000
  H   H18       1.0  0.8187222595919579  0.7460341453048758  0.8770744145816353  1.0000
  H   H19       1.0  0.9421065185332081  0.753550671456466  0.6225544326243622  1.0000
  H   H20       1.0  0.6812723101308366  0.6229508153892953  0.7539642124305318  1.0000
  C   C1        1.0  0.5330032734578296  0.18972525631469492  0.21630072522852833  1.0000
  C   C2        1.0  0.060523534500326506  0.21663470974887392  0.1900678841046783  1.0000
  C   C3        1.0  0.9670012951570686  0.2836807700763942  0.3102834280007727  1.0000
  C   C4        1.0  0.4394768604384467  0.3099439524051491  0.2833403314383105  1.0000
  C   C5        1.0  0.4670055552933761  0.8102972781853952  0.7836915917814835  1.0000
  C   C6        1.0  0.9394777613149682  0.7833351120959763  0.8099349312674561  1.0000
  C   C7        1.0  0.032989616283351876  0.7163153097285504  0.6897292150439966  1.0000
  C   C8        1.0  0.5605271944351601  0.6900701231163996  0.7166420026844091  1.0000
  C   C9        1.0  0.5784969192739311  0.2692624744912779  0.04527418395167619  1.0000
  C   C10       1.0  0.10641280504295034  0.04561169911683297  0.2696434412048773  1.0000
  C   C11       1.0  0.9215016313724577  0.45470584056847946  0.2307425901965416  1.0000
  C   C12       1.0  0.39357973583275924  0.2303649706178703  0.4543693484910775  1.0000
  C   C13       1.0  0.42150099189883866  0.730759542723071  0.9547091981236163  1.0000
  C   C14       1.0  0.8935743431228292  0.9543686574185916  0.7303682171331118  1.0000
  C   C15       1.0  0.078493999301102  0.5452760225934555  0.7692746429005767  1.0000
  C   C16       1.0  0.6064145739312391  0.7696463285402334  0.5456219427411213  1.0000
  O   O1        1.0  0.6893778094616537  0.09719354394211176  0.26165875021763446  1.0000
  O   O2        1.0  0.9513600932627212  0.26191555050525045  0.09744631213053619  1.0000
  O   O3        1.0  0.8106224850133898  0.2383300503401602  0.4028111341704347  1.0000
  O   O4        1.0  0.5486466552611232  0.4025582046762396  0.23806574392198598  1.0000
  O   O5        1.0  0.31063127038063215  0.9028126420956187  0.7383258863013324  1.0000
  O   O6        1.0  0.048634274157144906  0.7380753930204166  0.9025596732409227  1.0000
  O   O7        1.0  0.18938198542863863  0.7616532574497801  0.5971949187922903  1.0000
  O   O8        1.0  0.4513492463152956  0.5974607582712537  0.7619321849513696  1.0000
  O   O9        1.0  0.7384076455869177  0.24199150927222496  0.9719437948072384  1.0000
  O   O10       1.0  0.04721278808025872  0.97215436066157  0.24227050311064602  1.0000
  O   O11       1.0  0.7616076618142953  0.5280518886322413  0.2580038988374653  1.0000
  O   O12       1.0  0.452761380618014  0.25775429679837464  0.5278320064280422  1.0000
  O   O13       1.0  0.2615954791627714  0.7580198919018034  0.028041912845829096  1.0000
  O   O14       1.0  0.9527731553954766  0.027839603095422615  0.757728752082869  1.0000
  O   O15       1.0  0.2384031817561904  0.47193485116968514  0.7420188823092602  1.0000
  O   O16       1.0  0.547225802236433  0.7422541264730856  0.4721682434883191  1.0000
  O   O17       1.0  0.45377099268039733  0.36018407665999075  0.9881858666958576  1.0000
  O   O18       1.0  0.19713933293056116  0.9886100965067331  0.3607146867041351  1.0000
  O   O19       1.0  0.046234986646595685  0.511798319112387  0.13981243200114327  1.0000
  O   O20       1.0  0.3028461748144409  0.13930599783726913  0.5113625156893348  1.0000
  O   O21       1.0  0.5462315057213233  0.6398400517075518  0.011804200958337698  1.0000
  O   O22       1.0  0.8028510330408666  0.011365165081748969  0.639301483889568  1.0000
  O   O23       1.0  0.9537735676824969  0.48818165759438176  0.8601925333233353  1.0000
  O   O24       1.0  0.6971535509598044  0.8607005340842592  0.4886187641820356  1.0000
  O   O25       1.0  0.10511088171198688  0.08337007347849838  0.916792901138997  1.0000
  O   O26       1.0  0.8948892888404881  0.9166373738215514  0.0831973073683301  1.0000
  O   O27       1.0  0.39489207223626727  0.5831979604402094  0.41664250277006687  1.0000
  O   O28       1.0  0.6051043208165509  0.4168087950015362  0.5833722853136649  1.0000
