data_image0
_chemical_formula_structural       Cu6H16C24N8O24F12
_chemical_formula_sum              "Cu6 H16 C24 N8 O24 F12"
_cell_length_a       6.655425491416609
_cell_length_b       8.05573277903302
_cell_length_c       19.448315137002407
_cell_angle_alpha    89.99288312237552
_cell_angle_beta     90.9169738812653
_cell_angle_gamma    89.97797125195918

_space_group_name_H-M_alt    "P 1"
_space_group_IT_number       1

loop_
  _space_group_symop_operation_xyz
  'x, y, z'

loop_
  _atom_site_type_symbol
  _atom_site_label
  _atom_site_symmetry_multiplicity
  _atom_site_fract_x
  _atom_site_fract_y
  _atom_site_fract_z
  _atom_site_occupancy
  Cu  Cu1       1.0  0.0009364126345374999  0.9990411549138258  0.00019524367588990004  1.0000
  Cu  Cu2       1.0  0.4998287392288887  0.5008562141848785  0.49998018134989763  1.0000
  Cu  Cu3       1.0  0.0128956085300942  0.22421025643711087  0.3028530475233069  1.0000
  Cu  Cu4       1.0  0.4867987376844383  0.7241111821733527  0.1971259504085694  1.0000
  Cu  Cu5       1.0  0.9869760909571923  0.7760981552003939  0.6972552516098105  1.0000
  Cu  Cu6       1.0  0.5124721141909134  0.27582867666281885  0.8027097171226032  1.0000
  H   H1        1.0  0.3769387460144883  0.11400870700060753  0.3037167983735642  1.0000
  H   H2        1.0  0.12294094088873919  0.6135444482268041  0.1961510401936479  1.0000
  H   H3        1.0  0.6231401288767914  0.8860873828404862  0.6966714845447229  1.0000
  H   H4        1.0  0.8764294679945549  0.3854730753922767  0.8034101986890931  1.0000
  H   H5        1.0  0.32902046768460735  0.1941748487312651  0.37759399718594017  1.0000
  H   H6        1.0  0.17140252110863227  0.6930421385396528  0.12221594474239339  1.0000
  H   H7        1.0  0.6707326304445475  0.8061075107075055  0.6227367229778196  1.0000
  H   H8        1.0  0.8289636664806181  0.30484183633603124  0.8772270946865534  1.0000
  H   H9        1.0  0.34585784758260013  0.7616605107459408  0.0436789392100749  1.0000
  H   H10       1.0  0.15513992487729666  0.2633302958117767  0.4562213563690137  1.0000
  H   H11       1.0  0.656042757308107  0.2374682201774263  0.9561977709410813  1.0000
  H   H12       1.0  0.8440730202876167  0.7394981991460768  0.5436611249619219  1.0000
  H   H13       1.0  0.21159109117638758  0.6389191399537141  0.9996975558575799  1.0000
  H   H14       1.0  0.289834680681885  0.14098041690367324  0.5002571543823464  1.0000
  H   H15       1.0  0.7924085325746119  0.36030616523673586  0.9993473369870784  1.0000
  H   H16       1.0  0.7075700452520266  0.8626192843377894  0.5006259820210559  1.0000
  C   C1        1.0  0.09934000809612797  0.13447078753924302  0.1485002993180586  1.0000
  C   C2        1.0  0.40046531983598743  0.6349978702669717  0.3515045105049737  1.0000
  C   C3        1.0  0.9013557491495732  0.8646283768152188  0.8517972485362791  1.0000
  C   C4        1.0  0.5986148050004587  0.3655999444139582  0.648292407574921  1.0000
  C   C5        1.0  0.8323476970200688  0.982876431750917  0.1302273797600861  1.0000
  C   C6        1.0  0.6678479775682787  0.48372747325677784  0.3699074376099389  1.0000
  C   C7        1.0  0.1686095070969458  0.0159371691092431  0.8700841445332088  1.0000
  C   C8        1.0  0.3314806154408885  0.5172973121332092  0.6300365176464524  1.0000
  C   C9        1.0  0.8341711803076135  0.03543420495811489  0.1984751078769165  1.0000
  C   C10       1.0  0.6657542844094165  0.5357651642978284  0.3015949931259243  1.0000
  C   C11       1.0  0.16646760319493834  0.9637307631659129  0.8017994591804154  1.0000
  C   C12       1.0  0.3332744558157898  0.4644664598743944  0.6982586971522409  1.0000
  C   C13       1.0  0.6876246265693808  0.0395219829412881  0.254407272774742  1.0000
  C   C14       1.0  0.8123369931301737  0.5395872740775829  0.24566629130572437  1.0000
  C   C15       1.0  0.3128655790821568  0.9598677007522483  0.7458293404200731  1.0000
  C   C16       1.0  0.18669200993572588  0.4600807770991011  0.7541612028892288  1.0000
  C   C17       1.0  0.27601463920243663  0.2447165440766668  0.1345310406778779  1.0000
  C   C18       1.0  0.2234266024188685  0.74507479539961  0.3653432008625543  1.0000
  C   C19       1.0  0.7243474906670426  0.7547141279623731  0.8657587649649942  1.0000
  C   C20       1.0  0.7756484108241464  0.25564964313215194  0.6343061087516446  1.0000
  C   C21       1.0  0.6980782020819445  0.8869891520705339  0.0844086398632058  1.0000
  C   C22       1.0  0.8023450510190884  0.3880082989960414  0.415729642218473  1.0000
  C   C23       1.0  0.30291402897089625  0.11201437132696408  0.9158233946054536  1.0000
  C   C24       1.0  0.19731539831363423  0.6134806850226369  0.5842425753559723  1.0000
  N   N1        1.0  0.9995908871890791  0.047806914853488494  0.099530067349896  1.0000
  N   N2        1.0  0.500567414790396  0.548786745635411  0.400560888561543  1.0000
  N   N3        1.0  0.0014939380266696001  0.9509036276621431  0.900802821260143  1.0000
  N   N4        1.0  0.4987959368024732  0.4524018924941445  0.5993472820782983  1.0000
  N   N5        1.0  0.005080454210904899  0.12799029590084388  0.20918311557369407  1.0000
  N   N6        1.0  0.49467467432549467  0.6281425274042078  0.29081376372509743  1.0000
  N   N7        1.0  0.9954171449068383  0.871352214255509  0.791074113049909  1.0000
  N   N8        1.0  0.5042674243985416  0.3718731213444002  0.7089627850587235  1.0000
  O   O1        1.0  0.7437337007821441  0.1213079053621016  0.3082095624417533  1.0000
  O   O2        1.0  0.7560387889556067  0.6211310424338098  0.19179522090510662  1.0000
  O   O3        1.0  0.25650137433829195  0.8784380993309854  0.6919622060292454  1.0000
  O   O4        1.0  0.24294116489964776  0.378183235751024  0.8079553714409684  1.0000
  O   O5        1.0  0.7473060589426979  0.883557808106211  0.021256819307289697  1.0000
  O   O6        1.0  0.7536783938728178  0.3853196635232266  0.4789479561025516  1.0000
  O   O7        1.0  0.2543861469868673  0.11479758782190431  0.9790448913988996  1.0000
  O   O8        1.0  0.24639492640616814  0.6167290864625129  0.5210715329920461  1.0000
  O   O9        1.0  0.5386970817683545  0.8134179950080523  0.1039195385189942  1.0000
  O   O10       1.0  0.9612943384589272  0.31383630987051  0.3961389871875767  1.0000
  O   O11       1.0  0.4615013240840041  0.18647574282817203  0.8961039104379722  1.0000
  O   O12       1.0  0.0382760022590034  0.687542211969266  0.6038270200242409  1.0000
  O   O13       1.0  0.51420311370709  0.976171700765903  0.2487868417451793  1.0000
  O   O14       1.0  0.9857276140954595  0.4761976735982074  0.2513413239072975  1.0000
  O   O15       1.0  0.4863127751807639  0.0231695657654996  0.7514293657103508  1.0000
  O   O16       1.0  0.013161136003098803  0.5233177164232431  0.7485696328600682  1.0000
  O   O17       1.0  0.3056759678752385  0.2060224344842396  0.3272564176399868  1.0000
  O   O18       1.0  0.19408747889604427  0.7055276662025423  0.1725606609856598  1.0000
  O   O19       1.0  0.6941884182740665  0.7939868055311476  0.6730688356075872  1.0000
  O   O20       1.0  0.8053483366894553  0.293253991492719  0.8268811896820623  1.0000
  O   O21       1.0  0.20471262037178656  0.7308774101716222  0.0319605146686257  1.0000
  O   O22       1.0  0.2964149805681089  0.2327806515237043  0.4678904223317417  1.0000
  O   O23       1.0  0.797677662669102  0.2673971870885836  0.9674955861585418  1.0000
  O   O24       1.0  0.7024376032841174  0.7696097030909569  0.5324366683119948  1.0000
  F   F1        1.0  0.22102909338730103  0.3685290430924796  0.0892170804173986  1.0000
  F   F2        1.0  0.27814012201100263  0.8694980055296355  0.4103988880397154  1.0000
  F   F3        1.0  0.7792121600083278  0.630082372480331  0.9107192816226543  1.0000
  F   F4        1.0  0.721050248716125  0.1316224078235848  0.5890557295047643  1.0000
  F   F5        1.0  0.43363703667097286  0.1642601374760133  0.1064442769560259  1.0000
  F   F6        1.0  0.0662368919303873  0.6645736812051695  0.3936554328214825  1.0000
  F   F7        1.0  0.5674753682414249  0.8353218162537103  0.894260498545961  1.0000
  F   F8        1.0  0.9328612163173986  0.3364139145291034  0.6061384940150418  1.0000
  F   F9        1.0  0.34462326224304  0.3197133598718763  0.19270878795985172  1.0000
  F   F10       1.0  0.15449817684939396  0.8192525624185195  0.3070034396747374  1.0000
  F   F11       1.0  0.6546706868532582  0.6807143330737235  0.807505440525567  1.0000
  F   F12       1.0  0.8446590376607189  0.18084498200123994  0.6924952385530219  1.0000
