data_image0
_chemical_formula_structural       Ag4P4H54C54N6O12
_chemical_formula_sum              "Ag4 P4 H54 C54 N6 O12"
_cell_length_a       9.79729297493808
_cell_length_b       9.797317330025379
_cell_length_c       15.890544435818727
_cell_angle_alpha    76.06659361160956
_cell_angle_beta     76.06687609436156
_cell_angle_gamma    75.34184632700563

_space_group_name_H-M_alt    "P 1"
_space_group_IT_number       1

loop_
  _space_group_symop_operation_xyz
  'x, y, z'

loop_
  _atom_site_type_symbol
  _atom_site_label
  _atom_site_symmetry_multiplicity
  _atom_site_fract_x
  _atom_site_fract_y
  _atom_site_fract_z
  _atom_site_occupancy
  Ag  Ag1       1.0  0.9049872711402854  0.2250292384544039  0.5885007749451674  1.0000
  Ag  Ag2       1.0  0.22502825965749915  0.9049889641179901  0.08850140570289967  1.0000
  Ag  Ag3       1.0  0.7582034333297826  0.6189832120003654  0.2653439327253651  1.0000
  Ag  Ag4       1.0  0.6189882832458053  0.7582047923952825  0.765344654845812  1.0000
  P   P1        1.0  0.8928863110962268  0.35923600255156873  0.4465625113798168  1.0000
  P   P2        1.0  0.3592371188357363  0.8928876912430536  0.9465637881677439  1.0000
  P   P3        1.0  0.8539688280484442  0.3749808768922307  0.2642949333200875  1.0000
  P   P4        1.0  0.37498462286443873  0.8539719814204003  0.7642956491590169  1.0000
  H   H1        1.0  0.11069719426434695  0.4275624907974985  0.2812909136923096  1.0000
  H   H2        1.0  0.4275638659538359  0.11069896330923967  0.7812909944695151  1.0000
  H   H3        1.0  0.2865520215724615  0.5846655337264293  0.2447158293859105  1.0000
  H   H4        1.0  0.5846674856563325  0.28655514267725124  0.7447155932764885  1.0000
  H   H5        1.0  0.300687449326304  0.7219120591647509  0.3545743455357595  1.0000
  H   H6        1.0  0.7219111806334553  0.3006877257714605  0.8545770429016387  1.0000
  H   H7        1.0  0.13682104139890328  0.6991653175362201  0.501882919497767  1.0000
  H   H8        1.0  0.6991659591728023  0.13682043080959258  0.0018813162258553505  1.0000
  H   H9        1.0  0.9597843967105392  0.5427030653639234  0.5385921413262764  1.0000
  H   H10       1.0  0.5427062811105402  0.9597837287719809  0.038591679944730096  1.0000
  H   H11       1.0  0.7996309794213019  0.6785054070042235  0.41528606172267507  1.0000
  H   H12       1.0  0.6785063226331827  0.7996289235722782  0.9152879351142788  1.0000
  H   H13       1.0  0.562756725555019  0.8371568760470465  0.44682755536415913  1.0000
  H   H14       1.0  0.8371565351821957  0.5627545918026441  0.9468258802587857  1.0000
  H   H15       1.0  0.3479427341119744  0.7330487340016203  0.5242747196389956  1.0000
  H   H16       1.0  0.7330484430824454  0.34794398509212227  0.024272683470364632  1.0000
  H   H17       1.0  0.37008296650995476  0.4672936371149205  0.5582727349759438  1.0000
  H   H18       1.0  0.4672936675632399  0.37008183430677377  0.05827492958679409  1.0000
  H   H19       1.0  0.6054230189054763  0.30655783081505195  0.5189086798717073  1.0000
  H   H20       1.0  0.3065567433169393  0.6054245341996843  0.018911875937362793  1.0000
  H   H21       1.0  0.9560970725287418  0.09048675633729887  0.30888277496617184  1.0000
  H   H22       1.0  0.09048996609035247  0.9560968555731715  0.8088815372187383  1.0000
  H   H23       1.0  0.7180462997045538  0.09539829850185545  0.4059662098361941  1.0000
  H   H24       1.0  0.09539811058151323  0.7180471521620004  0.9059663510097096  1.0000
  H   H25       1.0  0.7960170838419316  0.06666520732579777  0.5011513711271152  1.0000
  H   H26       1.0  0.06666491172254037  0.7960202685780826  0.0011503388837468325  1.0000
  H   H27       1.0  0.8423217041826663  0.9331653296336595  0.43467566687600373  1.0000
  H   H28       1.0  0.933165844839003  0.8423253206082533  0.9346745955170093  1.0000
  H   H29       1.0  0.1699115347034947  0.1020824770182003  0.3688990634787146  1.0000
  H   H30       1.0  0.1020819703153961  0.16991263498126588  0.8688969930799929  1.0000
  H   H31       1.0  0.11249326293746979  0.9359050556078472  0.4033973587940878  1.0000
  H   H32       1.0  0.9359048988087723  0.11249338207267806  0.9033949789568326  1.0000
  H   H33       1.0  0.0709779487795714  0.05786807310410319  0.477349133703271  1.0000
  H   H34       1.0  0.05786732164579431  0.07097947973586827  0.9773471269443166  1.0000
  H   H35       1.0  0.5466151254276355  0.4214816784065504  0.3212844056085373  1.0000
  H   H36       1.0  0.4214855071090112  0.5466163181311926  0.8212872477605729  1.0000
  H   H37       1.0  0.36304404816294067  0.29388467680613667  0.31236027994047794  1.0000
  H   H38       1.0  0.2938867733975883  0.36304540532044877  0.8123628182051379  1.0000
  H   H39       1.0  0.4356593794657257  0.08327398515740467  0.23689709226287906  1.0000
  H   H40       1.0  0.08327632650833287  0.43566468044220136  0.7368966504063509  1.0000
  H   H41       1.0  0.6890145336602699  0.0106984774406627  0.16331729609079562  1.0000
  H   H42       1.0  0.010702555846457117  0.6890206244848114  0.6633184541768316  1.0000
  H   H43       1.0  0.87277537929657  0.13983310347433076  0.1697408786512327  1.0000
  H   H44       1.0  0.13983832850247072  0.8727748971598  0.6697421200078113  1.0000
  H   H45       1.0  0.1483473838700888  0.1672059714971184  0.24126925427594162  1.0000
  H   H46       1.0  0.167210575764031  0.14834996034927878  0.7412713872660674  1.0000
  H   H47       1.0  0.3352621990589668  0.13918240706534135  0.10866610407495612  1.0000
  H   H48       1.0  0.13918262728061137  0.3352646115529581  0.6086666645331534  1.0000
  H   H49       1.0  0.2988442176722402  0.28969649003309417  0.9625164516454346  1.0000
  H   H50       1.0  0.2896939575440812  0.2988451520810357  0.4625153960115256  1.0000
  H   H51       1.0  0.0747364090922673  0.47699740833392196  0.9512204103668368  1.0000
  H   H52       1.0  0.4769958774504488  0.07473514954891408  0.4512202168045292  1.0000
  H   H53       1.0  0.8886801040435016  0.5126744059817127  0.08607251513674197  1.0000
  H   H54       1.0  0.5126739404459146  0.8886805502354842  0.5860731685447435  1.0000
  C   C1        1.0  0.02266844707230583  0.475107306314939  0.4122560338972434  1.0000
  C   C2        1.0  0.4751088814901649  0.022671894833763397  0.9122560623449376  1.0000
  C   C3        1.0  0.1153401388164497  0.48712992364768576  0.3298894637048448  1.0000
  C   C4        1.0  0.4871303588133459  0.11534401591595156  0.8298875751006066  1.0000
  C   C5        1.0  0.21510639512458601  0.5759372514932791  0.3092169252734466  1.0000
  C   C6        1.0  0.575938738305858  0.21510845420552727  0.8092170198196841  1.0000
  C   C7        1.0  0.2229875731965052  0.65284123694083  0.3706087797890731  1.0000
  C   C8        1.0  0.6528411022961436  0.22299019236536566  0.8706091465186034  1.0000
  C   C9        1.0  0.13088802608591268  0.6404107140217971  0.4531549234905016  1.0000
  C   C10       1.0  0.6404136791982677  0.130888441692079  0.9531552902427125  1.0000
  C   C11       1.0  0.031767115894496115  0.5520500986510654  0.47422833769568484  1.0000
  C   C12       1.0  0.5520505109187681  0.031767887766726184  0.9742271597601122  1.0000
  C   C13       1.0  0.7183795128317101  0.48171225305059545  0.46218414389229423  1.0000
  C   C14       1.0  0.48171364224310037  0.7183810133370583  0.9621852279726612  1.0000
  C   C15       1.0  0.705232364468749  0.6314739649427777  0.44366127929891525  1.0000
  C   C16       1.0  0.6314752529385004  0.7052308733091831  0.9436630928451494  1.0000
  C   C17       1.0  0.5715009530536079  0.7212129054565394  0.46441712962441534  1.0000
  C   C18       1.0  0.721215834499965  0.5715007908252118  0.9644163584736702  1.0000
  C   C19       1.0  0.4512781944362275  0.6625942700031259  0.5059301941036196  1.0000
  C   C20       1.0  0.6625937171863255  0.4512776902684193  0.0059313135966548485  1.0000
  C   C21       1.0  0.46376913637624273  0.5134365671674103  0.5251102305970222  1.0000
  C   C22       1.0  0.5134377686885684  0.4637712820186195  0.025111687147330038  1.0000
  C   C23       1.0  0.5962870745002178  0.4229591454383196  0.5029745278745638  1.0000
  C   C24       1.0  0.4229593831871982  0.5962877515085693  0.0029772316941674023  1.0000
  C   C25       1.0  0.940989535409237  0.11512519596220727  0.37481011666998393  1.0000
  C   C26       1.0  0.1151264716793179  0.9409923360221908  0.8748081553777  1.0000
  C   C27       1.0  0.8164102296573289  0.04951684138495689  0.43300798065385493  1.0000
  C   C28       1.0  0.04951703065665923  0.8164127543812896  0.9330075779780174  1.0000
  C   C29       1.0  0.08178805411446179  0.049900222239330085  0.4080803559085454  1.0000
  C   C30       1.0  0.04989929017822451  0.08178847729561765  0.9080785086585978  1.0000
  C   C31       1.0  0.7222223819148468  0.28689904598667226  0.24762318879842127  1.0000
  C   C32       1.0  0.2869026575349025  0.7222254757147154  0.7476240061207093  1.0000
  C   C33       1.0  0.5777887981905961  0.33121545152756937  0.286678296922844  1.0000
  C   C34       1.0  0.3312186707287382  0.5777919286940258  0.7866788521042737  1.0000
  C   C35       1.0  0.47496112522055245  0.2591101436598251  0.28188412246787214  1.0000
  C   C36       1.0  0.2591121195577203  0.47496577086963715  0.7818853178849993  1.0000
  C   C37       1.0  0.514794421528883  0.14309323270187946  0.23816565697331538  1.0000
  C   C38       1.0  0.14309707908180516  0.5147951684610845  0.7381668930777608  1.0000
  C   C39       1.0  0.6575471125445418  0.1019751929652486  0.19679275244050842  1.0000
  C   C40       1.0  0.10197870169247383  0.6575529329957487  0.6967929808370174  1.0000
  C   C41       1.0  0.7610750208949922  0.17390926026262576  0.20091137792820757  1.0000
  C   C42       1.0  0.17391542442777563  0.7610794585606865  0.7009107359133182  1.0000
  C   C43       1.0  0.0034736319544351082  0.3404032880849782  0.17276961545582742  1.0000
  C   C44       1.0  0.3404081157087973  0.0034743420702553996  0.6727718924294523  1.0000
  C   C45       1.0  0.1303509921907349  0.23615352501050063  0.17851171186749332  1.0000
  C   C46       1.0  0.2361564278887371  0.13035280092480409  0.6785137260733692  1.0000
  C   C47       1.0  0.2360207801653971  0.2188841571636715  0.1028632211906952  1.0000
  C   C48       1.0  0.21888655088860529  0.2360207048094337  0.6028647556659622  1.0000
  C   C49       1.0  0.2156794887246676  0.30421677048079937  0.02097290839098781  1.0000
  C   C50       1.0  0.30421660528469363  0.21568131705809884  0.5209721987500373  1.0000
  C   C51       1.0  0.08989176298975822  0.40908863502642834  0.014977320863231084  1.0000
  C   C52       1.0  0.4090852877102833  0.08989041463303947  0.5149785665333584  1.0000
  C   C53       1.0  0.9853028757285924  0.4283274067271918  0.09048234782597586  1.0000
  C   C54       1.0  0.428328734060237  0.985303626208612  0.5904842770484678  1.0000
  N   N1        1.0  0.8209422647235628  0.9727935519154368  0.7148804732997152  1.0000
  N   N2        1.0  0.972794228457978  0.8209394984017491  0.21488038805110676  1.0000
  N   N3        1.0  0.9065265478663564  0.2773237405930401  0.3605611120678347  1.0000
  N   N4        1.0  0.2773258880754241  0.9065285355146171  0.8605594697488712  1.0000
  N   N5        1.0  0.8003620948062249  0.48663853475472507  0.7048728250017648  1.0000
  N   N6        1.0  0.486639176519425  0.8003603716894927  0.2048724439730308  1.0000
  O   O1        1.0  0.8930854486787042  0.36929100695827793  0.7020258005343365  1.0000
  O   O2        1.0  0.3692900028945587  0.8930866015867805  0.20202488729914594  1.0000
  O   O3        1.0  0.9147793620700282  0.049074661153092294  0.7068857941862775  1.0000
  O   O4        1.0  0.04907402395120639  0.9147794896267383  0.20688566738386538  1.0000
  O   O5        1.0  0.7397932907534539  0.003026184627977098  0.6596365797798783  1.0000
  O   O6        1.0  0.0030254724686997925  0.7397905104684169  0.15963773884602966  1.0000
  O   O7        1.0  0.8140899916770435  0.868095381677044  0.7789466236386248  1.0000
  O   O8        1.0  0.8680938584873913  0.8140892914287007  0.2789438779270271  1.0000
  O   O9        1.0  0.7923675970054092  0.5524298268911635  0.7674358108191655  1.0000
  O   O10       1.0  0.5524310572468849  0.7923673205190551  0.2674352513358898  1.0000
  O   O11       1.0  0.7201527152822963  0.5369379589340894  0.6493978939619042  1.0000
  O   O12       1.0  0.5369377888860356  0.720152749176222  0.14939821971691467  1.0000
