data_image0
_chemical_formula_structural       Fe2H24C16N4O16
_chemical_formula_sum              "Fe2 H24 C16 N4 O16"
_cell_length_a       7.4602771260791805
_cell_length_b       7.630679243052913
_cell_length_c       9.298099347565364
_cell_angle_alpha    89.68799928901004
_cell_angle_beta     90.58427412775539
_cell_angle_gamma    108.45143718230746

_space_group_name_H-M_alt    "P 1"
_space_group_IT_number       1

loop_
  _space_group_symop_operation_xyz
  'x, y, z'

loop_
  _atom_site_type_symbol
  _atom_site_label
  _atom_site_symmetry_multiplicity
  _atom_site_fract_x
  _atom_site_fract_y
  _atom_site_fract_z
  _atom_site_occupancy
  Fe  Fe1       1.0  0.0  0.0  0.0  1.0000
  Fe  Fe2       1.0  0.49999983055492686  0.9999988734164585  0.4999999314956798  1.0000
  H   H1        1.0  0.41425106336523504  0.22315505963914  0.8886508490563189  1.0000
  H   H2        1.0  0.08426457769107286  0.7769693673226352  0.38994459575247487  1.0000
  H   H3        1.0  0.5857489921660318  0.7768454906514248  0.11134892666149203  1.0000
  H   H4        1.0  0.915733688370949  0.22302980418675128  0.6100551756974327  1.0000
  H   H5        1.0  0.663870398177451  0.33247702377857974  0.8873913793949272  1.0000
  H   H6        1.0  0.8350442935781075  0.665380439004998  0.3805677097456624  1.0000
  H   H7        1.0  0.3361327926914939  0.6675249009459846  0.11260948164334651  1.0000
  H   H8        1.0  0.16495397248391439  0.3346187325043885  0.6194320617042524  1.0000
  H   H9        1.0  0.6488309762912152  0.25255768125882117  0.2542721287619401  1.0000
  H   H10       1.0  0.8579580495293798  0.7536474489498058  0.7517940891278344  1.0000
  H   H11       1.0  0.35117130228617544  0.7474414836412886  0.7457265837153316  1.0000
  H   H12       1.0  0.14204022280511447  0.24635172095152302  0.2482067578546677  1.0000
  H   H13       1.0  0.647129245899045  0.14099429129610996  0.08754712937696502  1.0000
  H   H14       1.0  0.8531430678952319  0.861507240093395  0.5835899794648614  1.0000
  H   H15       1.0  0.3528699136371145  0.8590076448619043  0.9124515640361895  1.0000
  H   H16       1.0  0.14685698763604188  0.1384933101971625  0.4164097962529497  1.0000
  H   H17       1.0  0.04483343381267698  0.3599561117899909  0.08077314829640161  1.0000
  H   H18       1.0  0.4717680253632535  0.6556166264531452  0.579529456234745  1.0000
  H   H19       1.0  0.9551635051983426  0.6400430592423871  0.9192287686987018  1.0000
  H   H20       1.0  0.528231574022243  0.34438254392519224  0.42046924520256124  1.0000
  H   H21       1.0  0.050797411006946895  0.3526141067912504  0.9104046245241196  1.0000
  H   H22       1.0  0.46190663730239834  0.6634558301764101  0.4089362478655404  1.0000
  H   H23       1.0  0.9492004177267077  0.6473836799817362  0.08959729924304582  1.0000
  H   H24       1.0  0.5380943016790455  0.3365433374628065  0.5910624590917524  1.0000
  C   C1        1.0  0.5000100988039904  0.49254711594721085  0.1540364510137238  1.0000
  C   C2        1.0  0.9977000240259458  0.5068652566967129  0.6535095700401428  1.0000
  C   C3        1.0  0.49999308579248236  0.5074548103854111  0.8459633344919627  1.0000
  C   C4        1.0  0.0023000189603835032  0.4931352968099672  0.3464880546124932  1.0000
  C   C5        1.0  0.5293167011755884  0.34657754180338424  0.9243516874632292  1.0000
  C   C6        1.0  0.9689590903874006  0.6524033221107712  0.42219464104183413  1.0000
  C   C7        1.0  0.4706842603747604  0.6534257699196856  0.07564916128298903  1.0000
  C   C8        1.0  0.031040059124791172  0.34759446674728156  0.5778040616475624  1.0000
  C   C9        1.0  0.5647940636465522  0.20176361523539998  0.15768816918052414  1.0000
  C   C10       1.0  0.9370364759805125  0.7996635320397939  0.6531333617568722  1.0000
  C   C11       1.0  0.43520554828388197  0.798235551926822  0.8423126833219572  1.0000
  C   C12       1.0  0.0629626798041514  0.20033425521019405  0.3468664164651116  1.0000
  C   C13       1.0  0.3815080321493197  0.04913066593913128  0.19404812146958514  1.0000
  C   C14       1.0  0.1278366702495433  0.9471573887571335  0.6848080296817047  1.0000
  C   C15       1.0  0.6184951524471458  0.9508712603934907  0.8059516640360942  1.0000
  C   C16       1.0  0.8721642812768449  0.052841775665967775  0.3151928283407629  1.0000
  N   N1        1.0  0.5320449993222951  0.3560501682250176  0.08071481056526862  1.0000
  N   N2        1.0  0.9621196883490912  0.6414841444140437  0.5783981749001015  1.0000
  N   N3        1.0  0.4679555123547559  0.6439517619777743  0.9192860394330399  1.0000
  N   N4        1.0  0.0378790213137634  0.35851641022368586  0.4216005197651357  1.0000
  O   O1        1.0  0.49566729853888347  0.49429089064658854  0.2901378659423344  1.0000
  O   O2        1.0  0.002491816466403004  0.505790559496141  0.7895730891901211  1.0000
  O   O3        1.0  0.5043345527341074  0.5057110368170895  0.7098629895759531  1.0000
  O   O4        1.0  0.9975077829191007  0.4942086108821895  0.21042561224718537  1.0000
  O   O5        1.0  0.36317645109871677  0.9680448852097141  0.3154910362520128  1.0000
  O   O6        1.0  0.1515087577357903  0.03714259237011669  0.8016211655153642  1.0000
  O   O7        1.0  0.6368231482867799  0.03195428516862358  0.6845076651852936  1.0000
  O   O8        1.0  0.8484913040679558  0.9628579563123902  0.19837968573502715  1.0000
  O   O9        1.0  0.2555150693259094  0.003995433130228298  0.09605805970767992  1.0000
  O   O10       1.0  0.24706718927969723  0.9696958994721637  0.5847961565048791  1.0000
  O   O11       1.0  0.7444849924778368  0.996005115552279  0.9039427915427115  1.0000
  O   O12       1.0  0.7529328625000744  0.030300501910367886  0.4152047040217611  1.0000
  O   O13       1.0  0.08209559865112942  0.29537077297375447  0.9993609505571758  1.0000
  O   O14       1.0  0.4307717851703218  0.7189158331365985  0.49776742301153837  1.0000
  O   O15       1.0  0.9179026736833649  0.7046283969275745  0.0006398964253193994  1.0000
  O   O16       1.0  0.569229153811115  0.2810833345026253  0.5022312839457542  1.0000
