data_image0
_chemical_formula_structural       Cd4H66C80N6O18
_chemical_formula_sum              "Cd4 H66 C80 N6 O18"
_cell_length_a       9.589544472099808
_cell_length_b       14.514007923088922
_cell_length_c       19.910635924843202
_cell_angle_alpha    80.31895266787629
_cell_angle_beta     77.4571001788133
_cell_angle_gamma    82.65601420194281

_space_group_name_H-M_alt    "P 1"
_space_group_IT_number       1

loop_
  _space_group_symop_operation_xyz
  'x, y, z'

loop_
  _atom_site_type_symbol
  _atom_site_label
  _atom_site_symmetry_multiplicity
  _atom_site_fract_x
  _atom_site_fract_y
  _atom_site_fract_z
  _atom_site_occupancy
  Cd  Cd1       1.0  0.4776271237851048  0.052202917074005484  0.19554597622766326  1.0000
  Cd  Cd2       1.0  0.5223693652119294  0.947803270943297  0.8044486422956112  1.0000
  Cd  Cd3       1.0  0.17132199595511113  0.2235225753594109  0.2522225995694498  1.0000
  Cd  Cd4       1.0  0.82869381089084  0.7764710542650591  0.7477950996520164  1.0000
  H   H1        1.0  0.8733623461804142  0.13449790689152513  0.1413851041886289  1.0000
  H   H2        1.0  0.126647459153439  0.8655118693865094  0.8586071493902594  1.0000
  H   H3        1.0  0.24755213028320358  0.9637366969322018  0.05488773119249402  1.0000
  H   H4        1.0  0.7524590076479996  0.03627800759261392  0.9451012647356266  1.0000
  H   H5        1.0  0.7500805759387105  0.11024631466153072  0.0500190197316144  1.0000
  H   H6        1.0  0.24992904585354137  0.8897711925909633  0.9499692924510866  1.0000
  H   H7        1.0  0.3379812462011245  0.42397157682349734  0.12680517549333814  1.0000
  H   H8        1.0  0.6620010808614296  0.5760296128009659  0.8731920711565097  1.0000
  H   H9        1.0  0.6782097266972258  0.26513874883413996  0.004500880795489976  1.0000
  H   H10       1.0  0.3217750521846624  0.7348673715472177  0.9954980108013841  1.0000
  H   H11       1.0  0.7260349178596215  0.40698867788928095  0.9156750582057924  1.0000
  H   H12       1.0  0.27394613040134175  0.5930139092561648  0.08432315831011997  1.0000
  H   H13       1.0  0.0047841839165130165  0.8102035961979439  0.48983369245835456  1.0000
  H   H14       1.0  0.9952357162872474  0.18978304494184076  0.5101633313768801  1.0000
  H   H15       1.0  0.1955041565205065  0.8411555689807103  0.3832903320564327  1.0000
  H   H16       1.0  0.80453040425445  0.1588269291951506  0.6167171847352506  1.0000
  H   H17       1.0  0.16796268112754834  0.13071968509405713  0.4107164481962542  1.0000
  H   H18       1.0  0.8320848095097377  0.8692621818321485  0.5892907688411241  1.0000
  H   H19       1.0  0.21603728748652165  0.4416393882527246  0.39281814486389516  1.0000
  H   H20       1.0  0.7839418301349002  0.5583695027332852  0.6071925638512141  1.0000
  H   H21       1.0  0.8123470528961649  0.3231427711217024  0.4587300849126945  1.0000
  H   H22       1.0  0.18763144287066777  0.6768696347787895  0.5412737302127438  1.0000
  H   H23       1.0  0.7328419500135013  0.430479628014183  0.5485315605176452  1.0000
  H   H24       1.0  0.26713168028408774  0.5695362672335094  0.45146832885297533  1.0000
  H   H25       1.0  0.11111664596789687  0.4481592987878643  0.23894740016316257  1.0000
  H   H26       1.0  0.8888912982233139  0.551849057947152  0.7610502487672477  1.0000
  H   H27       1.0  0.9658817233688379  0.58657317779619  0.18696577323787977  1.0000
  H   H28       1.0  0.0341275151755198  0.4134337803827251  0.8130324110415257  1.0000
  H   H29       1.0  0.7879181932012571  0.39517460591684994  0.09142208693985758  1.0000
  H   H30       1.0  0.21208243166932303  0.604833004248427  0.908580453595995  1.0000
  H   H31       1.0  0.9397031634712363  0.2647858157923367  0.1486173550126892  1.0000
  H   H32       1.0  0.06029351417645758  0.7352196649635732  0.8513848637841547  1.0000
  H   H33       1.0  0.7285567236104312  0.6315179289273873  0.13642435728591099  1.0000
  H   H34       1.0  0.2714272615122936  0.3684867778714677  0.8635798148767151  1.0000
  H   H35       1.0  0.6977802372556282  0.5603971783613562  0.07801811030860507  1.0000
  H   H36       1.0  0.3022130580014135  0.4396026618661467  0.9219851612169592  1.0000
  H   H37       1.0  0.9715544107235771  0.6601262191404164  0.058242396241951176  1.0000
  H   H38       1.0  0.028436548716093975  0.33987501195747444  0.9417629634121738  1.0000
  H   H39       1.0  0.9324997606836047  0.5943299543948585  0.999533065360474  1.0000
  H   H40       1.0  0.06749237184859423  0.40567058092279507  0.0004717519677299836  1.0000
  H   H41       1.0  0.7254089689683525  0.7063689117877063  0.9775185103872842  1.0000
  H   H42       1.0  0.2745885594608524  0.29363797875526393  0.022483946965728304  1.0000
  H   H43       1.0  0.8845035660713733  0.7619991295763385  0.9598082793333019  1.0000
  H   H44       1.0  0.11549804646767113  0.23800216250689493  0.04019392550969769  1.0000
  H   H45       1.0  0.8924280599791602  0.7823949497987998  0.11397008435057633  1.0000
  H   H46       1.0  0.10757356811143377  0.21760634124931502  0.8860336257074976  1.0000
  H   H47       1.0  0.7653057769831694  0.9053495558926915  0.18468636379362374  1.0000
  H   H48       1.0  0.2346981226865381  0.09465104326546481  0.8153196995829006  1.0000
  H   H49       1.0  0.4443292945759224  0.9625797575350677  0.07094941808458796  1.0000
  H   H50       1.0  0.5556767884726456  0.03742717965693032  0.9290536261973442  1.0000
  H   H51       1.0  0.5568266504220105  0.8413557783955952  0.9943336192178122  1.0000
  H   H52       1.0  0.4431764522619446  0.15864973674326427  0.005669917817840483  1.0000
  H   H53       1.0  0.5153513376394299  0.10629161916973831  0.3364995440179257  1.0000
  H   H54       1.0  0.48464490065033766  0.8937012321332038  0.6634751390934567  1.0000
  H   H55       1.0  0.557360665024369  0.12013056095683086  0.4369768644953139  1.0000
  H   H56       1.0  0.442599200480096  0.8798564584858755  0.5630119627324319  1.0000
  H   H57       1.0  0.7316447250618623  0.15619955452874734  0.4330085805839659  1.0000
  H   H58       1.0  0.2683181985649767  0.843788881791504  0.5669872799654171  1.0000
  H   H59       1.0  0.6963402999407435  0.037389962430651714  0.46461982425238085  1.0000
  H   H60       1.0  0.30362584146286753  0.9625914666779211  0.5353740400157392  1.0000
  H   H61       1.0  0.9007759027148338  0.979314336334504  0.36246394828398104  1.0000
  H   H62       1.0  0.0992051384798103  0.020674897879708  0.6375379145228307  1.0000
  H   H63       1.0  0.9329066149204621  0.10043894159505842  0.34449999180215934  1.0000
  H   H64       1.0  0.06707216498797657  0.899558007877147  0.6555036783019332  1.0000
  H   H65       1.0  0.8937932045265882  0.04485517329368351  0.27800367112838137  1.0000
  H   H66       1.0  0.10620198823483659  0.9551390600034467  0.7219945600751457  1.0000
  C   C1        1.0  0.15317726410494711  0.07867306869820115  0.15122555344054686  1.0000
  C   C2        1.0  0.8468287755903602  0.9213205179778401  0.8487776249637805  1.0000
  C   C3        1.0  0.0712399636387531  0.05320066361304041  0.1017002893352412  1.0000
  C   C4        1.0  0.9287732636740813  0.9468013971568043  0.898299073451021  1.0000
  C   C5        1.0  0.9285327315868062  0.09349337680058771  0.10072162156238557  1.0000
  C   C6        1.0  0.07148571138280597  0.906509416547728  0.899276089620109  1.0000
  C   C7        1.0  0.1387724755345019  0.9951457149396605  0.05346418505998679  1.0000
  C   C8        1.0  0.8612456470813612  0.004865513194104701  0.9465270018363298  1.0000
  C   C9        1.0  0.07075451271947483  0.9777661993672526  0.0013160619019316991  1.0000
  C   C10       1.0  0.9292565765998192  0.022242179044759804  0.9986757235492405  1.0000
  C   C11       1.0  0.8599541763576751  0.0792962699451323  0.04989275330559206  1.0000
  C   C12       1.0  0.1400672593015243  0.9207142739843949  0.9500981634316331  1.0000
  C   C13       1.0  0.4439526460311142  0.5027849614144488  0.03032099901852089  1.0000
  C   C14       1.0  0.5560290292682807  0.49721411047148945  0.969684612825425  1.0000
  C   C15       1.0  0.4215234940417361  0.42151369061580374  0.08009188264104951  1.0000
  C   C16       1.0  0.5784612414120857  0.5784861033077109  0.9199103002172391  1.0000
  C   C17       1.0  0.5040019980641403  0.3374413481225532  0.0706822217950887  1.0000
  C   C18       1.0  0.49599233347327504  0.6625585001357097  0.9293179245145637  1.0000
  C   C19       1.0  0.614605665883559  0.3320893627792999  0.010638629914268382  1.0000
  C   C20       1.0  0.3853856281920969  0.6679160912793735  0.9893596471662035  1.0000
  C   C21       1.0  0.640445469742673  0.410321160853414  0.9616666812665712  1.0000
  C   C22       1.0  0.35953729563286174  0.589684244831034  0.03833351757675978  1.0000
  C   C23       1.0  0.47323929556438327  0.2522344969554383  0.12408153646229886  1.0000
  C   C24       1.0  0.5267554379990642  0.7477695697780935  0.8759180498723467  1.0000
  C   C25       1.0  0.040084398600960504  0.8802963977563395  0.4721924641090993  1.0000
  C   C26       1.0  0.9599258361718912  0.11968386431605896  0.5278073788444004  1.0000
  C   C27       1.0  0.14568363608839963  0.8967917069710015  0.41373723031273363  1.0000
  C   C28       1.0  0.85433782690896  0.10319212833573492  0.5862649929131293  1.0000
  C   C29       1.0  0.19092012687814022  0.9883329207512335  0.39082245095556084  1.0000
  C   C30       1.0  0.8091144131614173  0.0116495788047857  0.6091830588826993  1.0000
  C   C31       1.0  0.13264272425419676  0.060791684209220924  0.42864144036224167  1.0000
  C   C32       1.0  0.8673867856274456  0.939188681012034  0.5713623573076986  1.0000
  C   C33       1.0  0.0242517390658534  0.045954634585392305  0.48907116941125395  1.0000
  C   C34       1.0  0.9757780029692993  0.9540243257741924  0.5109337801318147  1.0000
  C   C35       1.0  0.2975038929350262  0.006352429508929403  0.3243671778671597  1.0000
  C   C36       1.0  0.7025362732725711  0.9936216671344699  0.6756412718982928  1.0000
  C   C37       1.0  0.11093375873275593  0.44001699097912456  0.4274206321624021  1.0000
  C   C38       1.0  0.8890407949950402  0.5599932851669609  0.5725833629623764  1.0000
  C   C39       1.0  0.01962773161566388  0.37680719096329107  0.420878914274354  1.0000
  C   C40       1.0  0.9803506273390141  0.623205918748191  0.5791223179610866  1.0000
  C   C41       1.0  0.882011644403299  0.3733611307643657  0.46519218048867106  1.0000
  C   C42       1.0  0.1179660543777814  0.6266561911168296  0.5348091082958888  1.0000
  C   C43       1.0  0.8387595837836201  0.4326154140207593  0.514609882573545  1.0000
  C   C44       1.0  0.1612107282867754  0.5674011657762109  0.4853897752178256  1.0000
  C   C45       1.0  0.9303625441606583  0.498175593264918  0.5223420747933005  1.0000
  C   C46       1.0  0.06960294391129909  0.5018444731189363  0.47765767115011215  1.0000
  C   C47       1.0  0.0659398778930296  0.313567213841452  0.3661943957158158  1.0000
  C   C48       1.0  0.93405585363179  0.686437558178071  0.6338090155417149  1.0000
  C   C49       1.0  0.03883964705068618  0.44002022259692103  0.20531886666520194  1.0000
  C   C50       1.0  0.9611714039496064  0.5599888530703226  0.7946798689247601  1.0000
  C   C51       1.0  0.9575330061367282  0.5164123901378944  0.17618597510281117  1.0000
  C   C52       1.0  0.042474953606031776  0.4835959655620032  0.8238131790426734  1.0000
  C   C53       1.0  0.8650238453119528  0.5028692692488124  0.13364710022391788  1.0000
  C   C54       1.0  0.1349719224998154  0.4971355003554265  0.8663598232021101  1.0000
  C   C55       1.0  0.8584607308210723  0.41051012339038817  0.12356241412048519  1.0000
  C   C56       1.0  0.14154342887865567  0.5894953983990735  0.8764400046526788  1.0000
  C   C57       1.0  0.9427590121240073  0.3375936425839541  0.15493020991528542  1.0000
  C   C58       1.0  0.057238990979925554  0.6624104375456102  0.8450755546606956  1.0000
  C   C59       1.0  0.7823524827489835  0.5848329089159922  0.09832466990025061  1.0000
  C   C60       1.0  0.21763565583088954  0.4151725241557715  0.9016784671827408  1.0000
  C   C61       1.0  0.8824035089613744  0.6404505821025239  0.038462472613701906  1.0000
  C   C62       1.0  0.11759052618427292  0.3595513699978312  0.9615409632698331  1.0000
  C   C63       1.0  0.8057453440633257  0.7274675565716465  0.0023738859249390486  1.0000
  C   C64       1.0  0.19425594616470226  0.27253584107888434  0.9976290998001573  1.0000
  C   C65       1.0  0.7343252082345587  0.7997102936412974  0.04815849368687704  1.0000
  C   C66       1.0  0.265677028116329  0.20029381274562041  0.9518432995775256  1.0000
  C   C67       1.0  0.7922028183702421  0.8194923115460286  0.10249498177377353  1.0000
  C   C68       1.0  0.2077990366900195  0.18050757498546238  0.8975093784190732  1.0000
  C   C69       1.0  0.7222978025210194  0.8880673389354218  0.1423915402094451  1.0000
  C   C70       1.0  0.2777072131440761  0.11193959229606072  0.8576116188582503  1.0000
  C   C71       1.0  0.5435984043390077  0.920046053157691  0.07820060162720917  1.0000
  C   C72       1.0  0.4564017076126277  0.0799580406181093  0.9218024246854525  1.0000
  C   C73       1.0  0.6065377751952212  0.8522428147914882  0.03643799640364878  1.0000
  C   C74       1.0  0.3934703161758506  0.14776483744245184  0.963563238893471  1.0000
  C   C75       1.0  0.6268914896776038  0.08187584726676532  0.3141627436708418  1.0000
  C   C76       1.0  0.373104233511576  0.9181282306028823  0.685829201802683  1.0000
  C   C77       1.0  0.6730525991307914  0.09889613996804773  0.4267364427364839  1.0000
  C   C78       1.0  0.32691639619298485  0.9010874143145742  0.5732553493646364  1.0000
  C   C79       1.0  0.8709761328369083  0.048024185422100615  0.3337926368521664  1.0000
  C   C80       1.0  0.12901524432993475  0.9519672149997123  0.6662073537639799  1.0000
  N   N1        1.0  0.0327538004725554  0.35157504418551616  0.194641709326433  1.0000
  N   N2        1.0  0.9672491913184942  0.6484311730391354  0.8053617535110078  1.0000
  N   N3        1.0  0.599269911278185  0.9376060162312998  0.13079256678334866  1.0000
  N   N4        1.0  0.4007353158050222  0.06239951151867022  0.8692097372040448  1.0000
  N   N5        1.0  0.7191192623057602  0.07613859499942069  0.35638304200939064  1.0000
  N   N6        1.0  0.2808624637871944  0.9238520600431316  0.643603003726163  1.0000
  O   O1        1.0  0.284140934802899  0.04766830073227621  0.14458027630209358  1.0000
  O   O2        1.0  0.7158709807227835  0.9523218063525223  0.855421193949347  1.0000
  O   O3        1.0  0.08351568809021609  0.132440216333471  0.1944362867555043  1.0000
  O   O4        1.0  0.9164958305932771  0.8675456719310191  0.805566245209306  1.0000
  O   O5        1.0  0.5412749730416451  0.17407092344731726  0.10947151854240639  1.0000
  O   O6        1.0  0.4587285110077417  0.8259317874888555  0.8905262944257899  1.0000
  O   O7        1.0  0.3828787060044689  0.26346378208658905  0.1793969681340144  1.0000
  O   O8        1.0  0.6171141943676446  0.7365381685387721  0.8206000599366446  1.0000
  O   O9        1.0  0.314353787170468  0.09324933717674362  0.2971288472104304  1.0000
  O   O10       1.0  0.6856721775891118  0.9067260930522991  0.7028709116064604  1.0000
  O   O11       1.0  0.3689539854229978  0.93899761274065  0.2962129854122749  1.0000
  O   O12       1.0  0.6310903706035021  0.06097018370225271  0.7037947843030067  1.0000
  O   O13       1.0  0.9817543703164444  0.25648428754585956  0.3592159246738689  1.0000
  O   O14       1.0  0.018259017845330967  0.7435037144115173  0.6407926777234181  1.0000
  O   O15       1.0  0.19127555861564358  0.3210440215018054  0.3273267775530329  1.0000
  O   O16       1.0  0.8087162450775763  0.678978302567657  0.6726663639830263  1.0000
  O   O17       1.0  0.6610498287633106  0.061737593937401414  0.2531845230763139  1.0000
  O   O18       1.0  0.3389786527417941  0.9382610560676244  0.7467900219974337  1.0000
