data_image0
_chemical_formula_structural       Cu2H46C46N6O8
_chemical_formula_sum              "Cu2 H46 C46 N6 O8"
_cell_length_a       8.159264945930245
_cell_length_b       10.63919806250313
_cell_length_c       14.175993343387603
_cell_angle_alpha    73.44825602724417
_cell_angle_beta     83.73108115046215
_cell_angle_gamma    70.20084418370361

_space_group_name_H-M_alt    "P 1"
_space_group_IT_number       1

loop_
  _space_group_symop_operation_xyz
  'x, y, z'

loop_
  _atom_site_type_symbol
  _atom_site_label
  _atom_site_symmetry_multiplicity
  _atom_site_fract_x
  _atom_site_fract_y
  _atom_site_fract_z
  _atom_site_occupancy
  Cu  Cu1       1.0  0.5885572606471925  0.5820524088728901  0.7139849437248743  1.0000
  Cu  Cu2       1.0  0.4114416667657252  0.41794594632444426  0.2860182375841732  1.0000
  H   H1        1.0  0.8698660013907117  0.5791864207011344  0.8392846737732002  1.0000
  H   H2        1.0  0.1301124902701928  0.4208389147921069  0.16073005761484185  1.0000
  H   H3        1.0  0.09080410934043935  0.7058487317194347  0.8141153443410759  1.0000
  H   H4        1.0  0.9091823421828737  0.2941610289894072  0.185895224885904  1.0000
  H   H5        1.0  0.10119550056714408  0.8757890127861855  0.6539433150559477  1.0000
  H   H6        1.0  0.8988249055018755  0.12420220038222138  0.3460595908764503  1.0000
  H   H7        1.0  0.8881914044167872  0.9178661756858162  0.5213905249612268  1.0000
  H   H8        1.0  0.11181192540824011  0.08213325870185878  0.4786143234360339  1.0000
  H   H9        1.0  0.6763043070919892  0.9450534781184743  0.41450942572750193  1.0000
  H   H10       1.0  0.32371675664087723  0.0549356928219993  0.5854988182219927  1.0000
  H   H11       1.0  0.4473591794542671  0.9372937118558298  0.3218471451220637  1.0000
  H   H12       1.0  0.5526708665549052  0.06269235001422402  0.6781535430813221  1.0000
  H   H13       1.0  0.28558990980712917  0.7665888506923649  0.3903600112945825  1.0000
  H   H14       1.0  0.7144511558295434  0.23338369720400454  0.6096302802228449  1.0000
  H   H15       1.0  0.1813059709315965  0.5943664846219789  0.46993020338109665  1.0000
  H   H16       1.0  0.8187235914512597  0.4056184868836681  0.5300629782368844  1.0000
  H   H17       1.0  0.04679613967667254  0.42271350316529066  0.5855393069182214  1.0000
  H   H18       1.0  0.9532123116920419  0.577286904138262  0.41444955503373393  1.0000
  H   H19       1.0  0.14809074752511003  0.31923445348731855  0.7570426092010862  1.0000
  H   H20       1.0  0.8518955957662727  0.6807710545079358  0.24295334188278883  1.0000
  H   H21       1.0  0.3843281967803593  0.38644692298596073  0.8124127886756585  1.0000
  H   H22       1.0  0.6156596617496107  0.6135575778830428  0.18758682717329117  1.0000
  H   H23       1.0  0.8545484704505385  0.1965558767367526  0.9338105151751251  1.0000
  H   H24       1.0  0.14546018175237665  0.8034404214957646  0.06618626170114798  1.0000
  H   H25       1.0  0.03296437443973587  0.14442062075228532  0.8536886765836017  1.0000
  H   H26       1.0  0.9670301266563401  0.8555714175604763  0.14630689070406802  1.0000
  H   H27       1.0  0.8838024902263656  0.023603335250783196  0.7884208447945369  1.0000
  H   H28       1.0  0.11616700838907688  0.9764072528694427  0.2115734679032145  1.0000
  H   H29       1.0  0.8895614421982215  0.9631402079195794  0.9181508790523907  1.0000
  H   H30       1.0  0.1104272212364776  0.036860094607853  0.08184182275272181  1.0000
  H   H31       1.0  0.579194581378175  0.1329548334538728  0.9226929968076478  1.0000
  H   H32       1.0  0.4207963061830214  0.8670507602491068  0.07731188029171689  1.0000
  H   H33       1.0  0.5776903245782421  0.1693417000630859  0.7939123488911122  1.0000
  H   H34       1.0  0.42228497951875726  0.8306627629522009  0.20609425678477333  1.0000
  H   H35       1.0  0.6248862318156089  0.8835443390972484  0.9387937409853606  1.0000
  H   H36       1.0  0.37508806943437634  0.11646221715771077  0.06121600036951241  1.0000
  H   H37       1.0  0.6355508382533446  0.9129995718811799  0.8105008827979107  1.0000
  H   H38       1.0  0.36444411284325895  0.0869988029921771  0.18950955029099964  1.0000
  H   H39       1.0  0.3285131267344568  0.07410189146839488  0.7963759831613119  1.0000
  H   H40       1.0  0.671496407470592  0.9259047588742388  0.20361220948239384  1.0000
  H   H41       1.0  0.31755308340454047  0.05349478396241381  0.9249008330151158  1.0000
  H   H42       1.0  0.6824286488881203  0.9465252100317018  0.07508805257123902  1.0000
  H   H43       1.0  0.3678780470351341  0.7955263269967005  0.9500063632133475  1.0000
  H   H44       1.0  0.6321004226896322  0.2044947430300184  0.04999163160756131  1.0000
  H   H45       1.0  0.1743443239550402  0.9064646093648749  0.8862051840822931  1.0000
  H   H46       1.0  0.8256410409167289  0.09355230887848619  0.1137869917000245  1.0000
  C   C1        1.0  0.8806719491782716  0.6551987455402966  0.7705892091089339  1.0000
  C   C2        1.0  0.11931816368940669  0.3448079351668056  0.22942394417266604  1.0000
  C   C3        1.0  0.0004893456888766669  0.7263622727446943  0.7561474290707508  1.0000
  C   C4        1.0  0.9995034593019482  0.27363817500415166  0.24386408472861384  1.0000
  C   C5        1.0  0.004995088947950377  0.8219340107255134  0.6656124913028877  1.0000
  C   C6        1.0  0.9950047535702424  0.1780653710715612  0.33438760447144494  1.0000
  C   C7        1.0  0.8887310929527599  0.8439871845530149  0.5927585892109237  1.0000
  C   C8        1.0  0.1112653494776907  0.15600494549985913  0.4072495617099038  1.0000
  C   C9        1.0  0.7725960988680928  0.768499870974736  0.6115771657635491  1.0000
  C   C10       1.0  0.2274133801756832  0.2314964943827249  0.38842943363601995  1.0000
  C   C11       1.0  0.644139572502219  0.7796606489046666  0.5417203720676796  1.0000
  C   C12       1.0  0.3558717713011816  0.2203253370553995  0.458287623240075  1.0000
  C   C13       1.0  0.6083002778853768  0.8704873203707065  0.44792447137602664  1.0000
  C   C14       1.0  0.39172150301048003  0.12950077206759397  0.5520769086739109  1.0000
  C   C15       1.0  0.47719728341365925  0.865825056459684  0.3945451897875145  1.0000
  C   C16       1.0  0.5228215849579744  0.13415881905425664  0.6054501727263853  1.0000
  C   C17       1.0  0.3856083613404592  0.7723213840029504  0.4329480063052601  1.0000
  C   C18       1.0  0.6144230053795782  0.22765943078019996  0.5670438469441167  1.0000
  C   C19       1.0  0.42877815982843265  0.6840960531298491  0.5272890974787645  1.0000
  C   C20       1.0  0.5712433641486571  0.3158930497949726  0.472707848209268  1.0000
  C   C21       1.0  0.3466416171953242  0.581158922001812  0.5834692746876371  1.0000
  C   C22       1.0  0.6533742733691454  0.41883220120789116  0.4165239990879287  1.0000
  C   C23       1.0  0.21929587278597754  0.5474286144314036  0.5468488673777827  1.0000
  C   C24       1.0  0.7807315995756667  0.4525615285342468  0.4531419143882405  1.0000
  C   C25       1.0  0.1474627902553891  0.4520140885832262  0.6097325810304924  1.0000
  C   C26       1.0  0.8525489792431458  0.5479842619580495  0.390256549038206  1.0000
  C   C27       1.0  0.20386300572907612  0.39298663168082015  0.706744793522013  1.0000
  C   C28       1.0  0.7961363517168398  0.6070147668383185  0.2932457273871734  1.0000
  C   C29       1.0  0.33348926803760975  0.4291686499070835  0.7379141497305428  1.0000
  C   C30       1.0  0.6665052555172581  0.570831733186388  0.26208529621054316  1.0000
  C   C31       1.0  0.8109098502114381  0.30575083403072517  0.7811285953524276  1.0000
  C   C32       1.0  0.18908193144218902  0.6942443344048073  0.21887138583853988  1.0000
  C   C33       1.0  0.890426826219084  0.1739014223742217  0.8621300753459524  1.0000
  C   C34       1.0  0.10957519117014411  0.8260958822963858  0.1378682335765831  1.0000
  C   C35       1.0  0.8314824299674726  0.0538009385917277  0.8565923483679185  1.0000
  C   C36       1.0  0.1685043155149445  0.9462004305756438  0.1434065746508892  1.0000
  C   C37       1.0  0.633751514062489  0.0877648876977943  0.8605970585412663  1.0000
  C   C38       1.0  0.3662373726651967  0.9122396505393124  0.13940743684158732  1.0000
  C   C39       1.0  0.5751501951297157  0.9629314428922983  0.8697851440187208  1.0000
  C   C40       1.0  0.4248403218976122  0.03707207121464509  0.13022019156384357  1.0000
  C   C41       1.0  0.3772795172773939  4.678940943139978e-05  0.867343891796061  1.0000
  C   C42       1.0  0.6227055950134713  0.9999618180610453  0.13265005446356792  1.0000
  C   C43       1.0  0.317511222803006  0.8743318410489207  0.8814523809777911  1.0000
  C   C44       1.0  0.6824703397899796  0.1256819642781224  0.11854487801608832  1.0000
  C   C45       1.0  0.37352667292331887  0.8067073864969102  0.7960061551282112  1.0000
  C   C46       1.0  0.6264700465154291  0.19330237133727476  0.20399331433476683  1.0000
  N   N1        1.0  0.7713829099587245  0.6751374270616495  0.6999000946652033  1.0000
  N   N2        1.0  0.22862264740735577  0.3248651636428193  0.3001082076720749  1.0000
  N   N3        1.0  0.554073187703125  0.6909070646543968  0.5779249825563398  1.0000
  N   N4        1.0  0.4459414138076455  0.3090830872182906  0.4220805565913608  1.0000
  N   N5        1.0  0.4035263974221338  0.5200038575938563  0.6773791463716209  1.0000
  N   N6        1.0  0.5964801662055238  0.4799945050121935  0.3226172989324283  1.0000
  O   O1        1.0  0.7084461434902138  0.40836885421257557  0.8128922940976155  1.0000
  O   O2        1.0  0.2915486959598964  0.5916274028059477  0.18711224220242437  1.0000
  O   O3        1.0  0.8464394211722778  0.3073647729731377  0.6923158406825679  1.0000
  O   O4        1.0  0.15353302937698746  0.692632357529362  0.3076854034543289  1.0000
  O   O5        1.0  0.34308812700081853  0.881925440069331  0.7090515230625486  1.0000
  O   O6        1.0  0.6569115673531841  0.11808328424203303  0.2909458985792811  1.0000
  O   O7        1.0  0.44798397184801797  0.6748051618700472  0.8213959369377406  1.0000
  O   O8        1.0  0.5520094582261804  0.32520664847544367  0.17860255826715138  1.0000
