data_image0
_chemical_formula_structural       Zn4In6H36C60N18O26
_chemical_formula_sum              "Zn4 In6 H36 C60 N18 O26"
_cell_length_a       14.120847135765274
_cell_length_b       14.120848394729764
_cell_length_c       18.525371826004704
_cell_angle_alpha    90.0000710444249
_cell_angle_beta     89.99992934886836
_cell_angle_gamma    120.00032082694214

_space_group_name_H-M_alt    "P 1"
_space_group_IT_number       1

loop_
  _space_group_symop_operation_xyz
  'x, y, z'

loop_
  _atom_site_type_symbol
  _atom_site_label
  _atom_site_symmetry_multiplicity
  _atom_site_fract_x
  _atom_site_fract_y
  _atom_site_fract_z
  _atom_site_occupancy
  Zn  Zn1       1.0  0.9999994329633425  0.9999992583955192  0.6510989443175391  1.0000
  Zn  Zn2       1.0  0.9999998952893704  2.457061967182406e-07  0.1511031086066694  1.0000
  Zn  Zn3       1.0  0.9999997896293918  3.5349509633452606e-07  0.3488810552203888  1.0000
  Zn  Zn4       1.0  0.9999999313738215  2.171328433909858e-07  0.8488828952373099  1.0000
  In  In1       1.0  0.7507084811278019  0.24929020557944173  0.7500003650853699  1.0000
  In  In2       1.0  0.7507095178863709  0.5014182907489869  0.7500004844163045  1.0000
  In  In3       1.0  0.49858219122538117  0.24929016137110693  0.7500004838851453  1.0000
  In  In4       1.0  0.24929024702659316  0.7507111777328745  0.2500006180540454  1.0000
  In  In5       1.0  0.24928801301527415  0.49857862440666884  0.2500010385217877  1.0000
  In  In6       1.0  0.501420406459914  0.7507101851156078  0.2500010390521936  1.0000
  H   H1        1.0  0.6755723181305554  0.04698843198482173  0.5601552623283796  1.0000
  H   H2        1.0  0.9530114292390265  0.6285840362708868  0.5601543272682934  1.0000
  H   H3        1.0  0.37141846280138685  0.3244284124390406  0.5601566165550552  1.0000
  H   H4        1.0  0.324423729290629  0.9530000480977562  0.0601480787794983  1.0000
  H   H5        1.0  0.04699826329400026  0.371420542100573  0.0601484740405382  1.0000
  H   H6        1.0  0.6285804388637429  0.6755784586846119  0.06014726436040971  1.0000
  H   H7        1.0  0.04700104263861962  0.6755794232060168  0.4398548968270645  1.0000
  H   H8        1.0  0.6285769801845548  0.9529971809850937  0.4398563734949974  1.0000
  H   H9        1.0  0.3244219748488106  0.3714220580250327  0.4398573211530847  1.0000
  H   H10       1.0  0.9530080250947958  0.3244286208439602  0.9398502059401039  1.0000
  H   H11       1.0  0.3714171356342675  0.04699182252162613  0.939849808870669  1.0000
  H   H12       1.0  0.675576032040496  0.628581466991797  0.9398488612176198  1.0000
  H   H13       1.0  0.32442099304540023  0.9529985393728778  0.43985597701116336  1.0000
  H   H14       1.0  0.047002119734891316  0.37142235515684524  0.4398563722706755  1.0000
  H   H15       1.0  0.628578301243877  0.6755791840390941  0.43985678199354783  1.0000
  H   H16       1.0  0.6755733125371037  0.04699310707477624  0.9398491257552025  1.0000
  H   H17       1.0  0.9530076855107976  0.6285807023241006  0.9398503498944848  1.0000
  H   H18       1.0  0.3714192967820154  0.3244247498410786  0.93984994017778  1.0000
  H   H19       1.0  0.9530118783727415  0.3244304288887463  0.5601547231133709  1.0000
  H   H20       1.0  0.37141714871706444  0.04698897264709965  0.5601559454442367  1.0000
  H   H21       1.0  0.6755733728436938  0.6285841221010103  0.5601566171957516  1.0000
  H   H22       1.0  0.04699882164934626  0.6755759746984324  0.06014861799607732  1.0000
  H   H23       1.0  0.6285802055060047  0.953002449690736  0.0601484752648815  1.0000
  H   H24       1.0  0.3244225865662004  0.3714214422204521  0.06014780352071371  1.0000
  H   H25       1.0  0.8616081655067448  0.13839053972372284  0.6365833735050546  1.0000
  H   H26       1.0  0.8616087431601754  0.7232174064951521  0.6365836503014892  1.0000
  H   H27       1.0  0.2767826456206279  0.13839134376998893  0.6365831092700918  1.0000
  H   H28       1.0  0.13839324655872082  0.8616067408840067  0.1365843757576855  1.0000
  H   H29       1.0  0.1383944647839712  0.2767865763480089  0.1365840989635743  1.0000
  H   H30       1.0  0.7232131812483543  0.8616044402717263  0.136584100194348  1.0000
  H   H31       1.0  0.13839067220312984  0.8616093176807168  0.36340735342918873  1.0000
  H   H32       1.0  0.7232173091286073  0.861608812947601  0.3634076176637677  1.0000
  H   H33       1.0  0.13839121158876824  0.27678275022272913  0.36340761643259617  1.0000
  H   H34       1.0  0.8616104975077336  0.13838821016474875  0.8634079705726165  1.0000
  H   H35       1.0  0.2767781658357791  0.13838874423414183  0.8634071665405046  1.0000
  H   H36       1.0  0.8616106369614299  0.7232211805450318  0.8634077075719164  1.0000
  C   C1        1.0  0.5989657965941645  0.0261017453953867  0.53330346582419  1.0000
  C   C2        1.0  0.9738963652856045  0.5728610861376  0.5333013887385931  1.0000
  C   C3        1.0  0.4271397920148202  0.4010368882186484  0.5333037242427849  1.0000
  C   C4        1.0  0.4010277167895424  0.9738906844984143  0.0332946104561813  1.0000
  C   C5        1.0  0.026107471427927433  0.42714084936043406  0.0332977671418746  1.0000
  C   C6        1.0  0.5728614819685447  0.5989690263614236  0.033298130641931316  1.0000
  C   C7        1.0  0.02611018955178662  0.5989728296075825  0.4667072329281723  1.0000
  C   C8        1.0  0.572860994697386  0.9738907192012505  0.46670715275122626  1.0000
  C   C9        1.0  0.40102936901375574  0.427137391388193  0.4667091341411478  1.0000
  C   C10       1.0  0.9738962358860305  0.40102935920180716  0.9667020550675789  1.0000
  C   C11       1.0  0.4271406926073809  0.026103460569636507  0.9667010556425027  1.0000
  C   C12       1.0  0.5989662948933516  0.5728613954269977  0.9667006936582896  1.0000
  C   C13       1.0  0.4010267770683671  0.9738902125325096  0.4667083133182929  1.0000
  C   C14       1.0  0.026110291690528645  0.42714086646827093  0.4667066118003618  1.0000
  C   C15       1.0  0.5728636742668556  0.5989725041380609  0.466709134503283  1.0000
  C   C16       1.0  0.5989688066253507  0.026104405439163373  0.9667020542794448  1.0000
  C   C17       1.0  0.9738960241969964  0.5728628482437018  0.9667032159963896  1.0000
  C   C18       1.0  0.42713866253889426  0.4010337733026859  0.9667017728970254  1.0000
  C   C19       1.0  0.9738980735384785  0.4010331822936665  0.5333034666131129  1.0000
  C   C20       1.0  0.42713909892837176  0.026102216878541626  0.533303006987488  1.0000
  C   C21       1.0  0.5989645916634742  0.5728616776390751  0.533304264404741  1.0000
  C   C22       1.0  0.02610777815375074  0.5989724036352227  0.033295689268136607  1.0000
  C   C23       1.0  0.5728587730624568  0.9738929361704223  0.033295609092356016  1.0000
  C   C24       1.0  0.4010324332633459  0.4271399878829598  0.033295971079276405  1.0000
  C   C25       1.0  0.5562376197731282  0.11247056278836001  0.6373942850729436  1.0000
  C   C26       1.0  0.526305769564317  0.05261558557436535  0.5669314476306583  1.0000
  C   C27       1.0  0.8875280178859981  0.44376257663105884  0.6373937459709182  1.0000
  C   C28       1.0  0.9473827003643295  0.47369330903360674  0.5669314485174939  1.0000
  C   C29       1.0  0.5562378944098895  0.4437635891671761  0.6373949816729905  1.0000
  C   C30       1.0  0.5263086332613653  0.4736942605810413  0.566932186724749  1.0000
  C   C31       1.0  0.4437626743915857  0.887526419384969  0.1373858474816245  1.0000
  C   C32       1.0  0.47368874471315786  0.9473730114452508  0.06692627729055543  1.0000
  C   C33       1.0  0.11247083058906067  0.5562386839362788  0.13738692638658995  1.0000
  C   C34       1.0  0.05262333449628881  0.5263092617463057  0.0669257366046736  1.0000
  C   C35       1.0  0.443764714046928  0.5562381604759637  0.137384611082517  1.0000
  C   C36       1.0  0.47368680049589773  0.5263132458911244  0.0669233790040593  1.0000
  C   C37       1.0  0.11247294434162569  0.5562394053131358  0.36261749337212734  1.0000
  C   C38       1.0  0.0526318561003832  0.5263149076080822  0.43307655202070794  1.0000
  C   C39       1.0  0.4437611377124001  0.8875251257837463  0.36261749406839533  1.0000
  C   C40       1.0  0.47368511777155237  0.947368144213762  0.43307655290710295  1.0000
  C   C41       1.0  0.44376206032694643  0.5562365675630617  0.362618956670822  1.0000
  C   C42       1.0  0.4736852687443616  0.5263161979360617  0.4330768934247118  1.0000
  C   C43       1.0  0.887527298941123  0.4437604652955046  0.8626102781504275  1.0000
  C   C44       1.0  0.947376021622965  0.4736886608966201  0.9330720077314183  1.0000
  C   C45       1.0  0.5562385069441191  0.11247251074641443  0.862610277453392  1.0000
  C   C46       1.0  0.5263068807606643  0.05261872737636965  0.9330736262452959  1.0000
  C   C47       1.0  0.5562377740909525  0.44376371191038544  0.8626120536535071  1.0000
  C   C48       1.0  0.5263111099342695  0.4736889551452279  0.9330738255345141  1.0000
  C   C49       1.0  0.8749974755955561  0.12500264897168015  0.6923879087904795  1.0000
  C   C50       1.0  0.8749975673042839  0.7499949202028448  0.6923876647970745  1.0000
  C   C51       1.0  0.2500040130868797  0.1250022209171604  0.6923871236814989  1.0000
  C   C52       1.0  0.1250006059397036  0.8749979633670434  0.192388396536785  1.0000
  C   C53       1.0  0.12500517215150353  0.25000953232997597  0.19238864052981344  1.0000
  C   C54       1.0  0.7499902282540984  0.8749937335013627  0.19238918164536764  1.0000
  C   C55       1.0  0.12500002597438004  0.8749999609247752  0.307603897746155  1.0000
  C   C56       1.0  0.7499922912314644  0.8749959208214622  0.30760306345289484  1.0000
  C   C57       1.0  0.1250033949343035  0.25000706173016607  0.3076030621371686  1.0000
  C   C58       1.0  0.8749990494955496  0.12500107631218782  0.8076039497973824  1.0000
  C   C59       1.0  0.25000030110292226  0.12500026873147627  0.8076037044909443  1.0000
  C   C60       1.0  0.8749995207301988  0.749998633426699  0.8076042456065267  1.0000
  N   N1        1.0  0.8410066093433527  0.15899350979241683  0.7499965011988865  1.0000
  N   N2        1.0  0.8410062950666486  0.6820116541345557  0.7499962089416388  1.0000
  N   N3        1.0  0.3179891110520571  0.1589945012548384  0.7499956680403559  1.0000
  N   N4        1.0  0.1589949808569173  0.8410050114744507  0.24999692473458887  1.0000
  N   N5        1.0  0.15899406854455117  0.317988093721155  0.24999667719276186  1.0000
  N   N6        1.0  0.6820126689116107  0.8410066629532621  0.2499972180940446  1.0000
  N   N7        1.0  0.9270649564485539  0.07293517760778914  0.7127556019477055  1.0000
  N   N8        1.0  0.9270634057354599  0.8541286719291888  0.7127559716848497  1.0000
  N   N9        1.0  0.14587177819797148  0.07293627316967387  0.7127554302396677  1.0000
  N   N10       1.0  0.07293749126868919  0.927062485340521  0.2127561880448141  1.0000
  N   N11       1.0  0.07293718742928948  0.1458736782758834  0.21275581831076104  1.0000
  N   N12       1.0  0.8541272088514871  0.9270620177411927  0.21275581995453763  1.0000
  N   N13       1.0  0.07293663375258327  0.9270633436581974  0.2872362045850779  1.0000
  N   N14       1.0  0.8541285854140882  0.9270634746851556  0.2872358364940339  1.0000
  N   N15       1.0  0.07293614015007675  0.14587189365202846  0.2872358348498595  1.0000
  N   N16       1.0  0.9270650262086944  0.07293369229707744  0.7872356184864203  1.0000
  N   N17       1.0  0.14587062136904902  0.07293601444781932  0.7872349069793148  1.0000
  N   N18       1.0  0.92706407412183  0.854129420696964  0.7872359882243389  1.0000
  O   O1        1.0  0.6486068533163943  0.1356332030652395  0.6641451325837835  1.0000
  O   O2        1.0  0.8643679492253327  0.5129753364813753  0.6641446697135722  1.0000
  O   O3        1.0  0.48702876686803614  0.3513924016199752  0.6641431516352512  1.0000
  O   O4        1.0  0.35139281363696995  0.8643615741907027  0.1641416183154121  1.0000
  O   O5        1.0  0.1356362367607744  0.4870305016179302  0.1641437005894275  1.0000
  O   O6        1.0  0.5129710605123989  0.6486107133227037  0.1641419798671251  1.0000
  O   O7        1.0  0.13563912249311025  0.6486121698467217  0.335860708301965  1.0000
  O   O8        1.0  0.512968949637312  0.8643601064511871  0.33586171222059147  1.0000
  O   O9        1.0  0.351390347211712  0.4870293772418464  0.33586268936609553  1.0000
  O   O10       1.0  0.8643637629796928  0.35139355611016765  0.8358604448767438  1.0000
  O   O11       1.0  0.48702748203628937  0.13563507707616648  0.8358594409561635  1.0000
  O   O12       1.0  0.6486083987536945  0.5129705737556094  0.8358584638118247  1.0000
  O   O13       1.0  0.35138501217163304  0.864358046684707  0.3358634077573087  1.0000
  O   O14       1.0  0.135641730219703  0.48703209176989765  0.3358617114258564  1.0000
  O   O15       1.0  0.5129726844389849  0.6486133403017432  0.33586214990680224  1.0000
  O   O16       1.0  0.6486069513436803  0.13563593959094786  0.8358593648216799  1.0000
  O   O17       1.0  0.8643631995684089  0.5129715898720449  0.8358599815511455  1.0000
  O   O18       1.0  0.4870303105832505  0.3513908597534439  0.8358600828715981  1.0000
  O   O19       1.0  0.8643663881084931  0.35139517819033705  0.6641440534386975  1.0000
  O   O20       1.0  0.4870266758336326  0.13563163237338216  0.6641435893175756  1.0000
  O   O21       1.0  0.6486074536618247  0.5129743497035619  0.6641469305785677  1.0000
  O   O22       1.0  0.13563727946593215  0.6486125946728335  0.1641416178643027  1.0000
  O   O23       1.0  0.5129683332009375  0.8643593046866866  0.16413992278061332  1.0000
  O   O24       1.0  0.3513914464409211  0.4870311088689689  0.1641408999265082  1.0000
  O   O25       1.0  0.6666665572751853  0.33333353082191747  0.7500009842628899  1.0000
  O   O26       1.0  0.3333343247445199  0.6666642822731744  0.25000053867405114  1.0000
