data_image0
_chemical_formula_structural       Fe6H12C24O18
_chemical_formula_sum              "Fe6 H12 C24 O18"
_cell_length_a       7.015822833375382
_cell_length_b       15.020590865983447
_cell_length_c       15.046286121630942
_cell_angle_alpha    117.81715898019131
_cell_angle_beta     99.25109418813135
_cell_angle_gamma    98.343806140024

_space_group_name_H-M_alt    "P 1"
_space_group_IT_number       1

loop_
  _space_group_symop_operation_xyz
  'x, y, z'

loop_
  _atom_site_type_symbol
  _atom_site_label
  _atom_site_symmetry_multiplicity
  _atom_site_fract_x
  _atom_site_fract_y
  _atom_site_fract_z
  _atom_site_occupancy
  Fe  Fe1       1.0  0.4767398900061011  0.2615355116849046  0.5842974761595768  1.0000
  Fe  Fe2       1.0  0.2106215269481027  0.32294414406317884  0.7357378558568826  1.0000
  Fe  Fe3       1.0  0.894651361095768  0.4167556741481705  0.6784253877730321  1.0000
  Fe  Fe4       1.0  0.5227154217670743  0.7384357594555625  0.41579809004867474  1.0000
  Fe  Fe5       1.0  0.7883735241684491  0.676664443709342  0.26378029977508527  1.0000
  Fe  Fe6       1.0  0.10635910511287948  0.5830021964986615  0.32155439204875336  1.0000
  H   H1        1.0  0.18676157077999997  0.5520770878023956  0.5277084386653854  1.0000
  H   H2        1.0  0.634625137564285  0.9759839440994045  0.4455620194078377  1.0000
  H   H3        1.0  0.6599698321283682  0.4700768162817257  0.022769927325050832  1.0000
  H   H4        1.0  0.8161976630229332  0.4493359730393396  0.47360922665767885  1.0000
  H   H5        1.0  0.36291763224625134  0.023624642257480802  0.554418520355135  1.0000
  H   H6        1.0  0.33992111082883975  0.5299872431038467  0.9768696498536042  1.0000
  H   H7        1.0  0.6574808464149627  0.7771173626219154  0.5229463312437658  1.0000
  H   H8        1.0  0.8823151004321731  0.7432882120982856  0.22345766069788914  1.0000
  H   H9        1.0  0.13327966792357415  0.4743382241887844  0.259849751092588  1.0000
  H   H10       1.0  0.3444114381467216  0.22275695634620266  0.47652336228100717  1.0000
  H   H11       1.0  0.11690988473200996  0.25721023577997226  0.7769540998969261  1.0000
  H   H12       1.0  0.8667622861688147  0.5250851870777  0.7404618945588125  1.0000
  C   C1        1.0  0.2683081066918546  0.439739524278295  0.614589128067827  1.0000
  C   C2        1.0  0.8220821029795431  0.1751823171331354  0.5581212021159131  1.0000
  C   C3        1.0  0.650908763953865  0.38483513982841094  0.8235332099743217  1.0000
  C   C4        1.0  0.7334027334614535  0.5604540922740144  0.3855181415895074  1.0000
  C   C5        1.0  0.17574469321692018  0.8245502363976772  0.44126413313274065  1.0000
  C   C6        1.0  0.34904482425881866  0.6147923088367336  0.17609220734178874  1.0000
  C   C7        1.0  0.3905415199711228  0.4685017303604653  0.5558883001677372  1.0000
  C   C8        1.0  0.917653578154166  0.08749622627254892  0.5323256808238667  1.0000
  C   C9        1.0  0.8332201889486299  0.44491337277170834  0.9116718004108647  1.0000
  C   C10       1.0  0.6120138061532784  0.5325615122124107  0.4450979248543161  1.0000
  C   C11       1.0  0.07992543114694672  0.9121400406292964  0.46755137737760316  1.0000
  C   C12       1.0  0.16675067651729578  0.5549747557716813  0.08800385393233504  1.0000
  C   C13       1.0  0.5721205611411974  0.439495028330157  0.5406502434437854  1.0000
  C   C14       1.0  0.1275514802846445  0.10139090553666819  0.564130562934423  1.0000
  C   C15       1.0  0.02914109107820907  0.4621758133890738  0.8987104123042114  1.0000
  C   C16       1.0  0.4305709609692413  0.561743259992376  0.4604897505920177  1.0000
  C   C17       1.0  0.8700189299075161  0.8982046946978884  0.435985477434407  1.0000
  C   C18       1.0  0.9708301640411534  0.5377178441189445  0.10100240680941401  1.0000
  C   C19       1.0  0.3247298185435952  0.5290802262090895  0.5154718812000424  1.0000
  C   C20       1.0  0.7948933476974389  0.986404302807415  0.46984998217135376  1.0000
  C   C21       1.0  0.8096046133406745  0.4835501964342157  0.01261223567881585  1.0000
  C   C22       1.0  0.6781805198273927  0.47230101485580883  0.48582546832216156  1.0000
  C   C23       1.0  0.20269229276412656  0.013216734452846901  0.5301793030142861  1.0000
  C   C24       1.0  0.19033063544357282  0.5164258896722133  0.9870466841505346  1.0000
  O   O1        1.0  0.3302948595637928  0.3848847214590237  0.6533900974171798  1.0000
  O   O2        1.0  0.9358772540796066  0.2674878887995931  0.6038932470284093  1.0000
  O   O3        1.0  0.6760350475392728  0.33788828626757106  0.7311996166781467  1.0000
  O   O4        1.0  0.6693080856971392  0.613552297562464  0.34508338518134707  1.0000
  O   O5        1.0  0.06240828984453363  0.7321033441385439  0.39508354541959523  1.0000
  O   O6        1.0  0.32456756026170536  0.6605120152002611  0.2686449106123872  1.0000
  O   O7        1.0  0.1098348288398583  0.4699963397335481  0.6263737790642806  1.0000
  O   O8        1.0  0.6312701650884521  0.15549122719772873  0.531487929076917  1.0000
  O   O9        1.0  0.48084167597971833  0.38095324431799343  0.8429367834578938  1.0000
  O   O10       1.0  0.8928631208182054  0.5309073505531219  0.37473574256060965  1.0000
  O   O11       1.0  0.3665419705920883  0.8442860452316626  0.46770450791144913  1.0000
  O   O12       1.0  0.5190095758875798  0.6196380854784708  0.15658403934436646  1.0000
  O   O13       1.0  0.6465176862916026  0.380042600414349  0.5759226123570683  1.0000
  O   O14       1.0  0.26070228006259555  0.19524892831216795  0.6268836308010889  1.0000
  O   O15       1.0  0.07026687846343545  0.43082492672958494  0.8046880614168257  1.0000
  O   O16       1.0  0.3556182079328209  0.6208335847690948  0.42479093821858516  1.0000
  O   O17       1.0  0.7368953135067641  0.8043117123874596  0.373283201261799  1.0000
  O   O18       1.0  0.9298702283842815  0.5689717523156903  0.19498014195355035  1.0000
