data_image0
_chemical_formula_structural       Cd8H8C20N12O24
_chemical_formula_sum              "Cd8 H8 C20 N12 O24"
_cell_length_a       7.436239299084141
_cell_length_b       7.6753776802175135
_cell_length_c       17.617677710004948
_cell_angle_alpha    89.99992113762036
_cell_angle_beta     90.00000843763023
_cell_angle_gamma    118.99880861630966

_space_group_name_H-M_alt    "P 1"
_space_group_IT_number       1

loop_
  _space_group_symop_operation_xyz
  'x, y, z'

loop_
  _atom_site_type_symbol
  _atom_site_label
  _atom_site_symmetry_multiplicity
  _atom_site_fract_x
  _atom_site_fract_y
  _atom_site_fract_z
  _atom_site_occupancy
  Cd  Cd1       1.0  0.08872527541755203  0.17735592823979837  0.7182296849702965  1.0000
  Cd  Cd2       1.0  0.41127440855136405  0.822644561861523  0.2182294364911357  1.0000
  Cd  Cd3       1.0  0.5887251475196891  0.17735553380594382  0.7817704247277605  1.0000
  Cd  Cd4       1.0  0.9112742806535011  0.8226441674276689  0.2817701762486067  1.0000
  Cd  Cd5       1.0  0.7223005831622302  0.4447139162953988  0.9665500940007093  1.0000
  Cd  Cd6       1.0  0.7776998922550363  0.555285061851997  0.46654999757235066  1.0000
  Cd  Cd7       1.0  0.22230100873975547  0.44471503413124225  0.5334498636465883  1.0000
  Cd  Cd8       1.0  0.27769957273837065  0.5552846900662092  0.033449767218655814  1.0000
  H   H1        1.0  0.826632458909586  0.653102148428275  0.6754469685908122  1.0000
  H   H2        1.0  0.6733698303981228  0.346897969687639  0.17544642305022512  1.0000
  H   H3        1.0  0.3266324155208766  0.6531021266124883  0.8245528705570566  1.0000
  H   H4        1.0  0.1733697870075802  0.34689794786741174  0.3245545954632689  1.0000
  H   H5        1.0  0.9625572746721645  0.9252838539198225  0.8893496576084275  1.0000
  H   H6        1.0  0.5374455603971526  0.0747198953271777  0.3893498344758656  1.0000
  H   H7        1.0  0.4625562309560254  0.9252846692040821  0.6106505943534588  1.0000
  H   H8        1.0  0.0374443714159085  0.0747177316828314  0.11065133883349183  1.0000
  C   C1        1.0  0.8366659182607776  0.6732178727275412  0.7365543356875436  1.0000
  C   C2        1.0  0.663333582755186  0.32678200552388864  0.2365543691997801  1.0000
  C   C3        1.0  0.3366659733158742  0.6732180901435786  0.7634454920191232  1.0000
  C   C4        1.0  0.16333363780982785  0.3267822229388174  0.2634460931430526  1.0000
  C   C5        1.0  0.9078510990356394  0.8158459174116861  0.8442977804638476  1.0000
  C   C6        1.0  0.5921504636884337  0.18415800789513534  0.3442978950941225  1.0000
  C   C7        1.0  0.40785132766519905  0.8158465566372259  0.655701966123502  1.0000
  C   C8        1.0  0.09214785720541131  0.18415566756051766  0.15570264836627964  1.0000
  C   C9        1.0  0.5140008693518752  0.027837712353161202  0.0432645066869028  1.0000
  C   C10       1.0  0.986001632900681  0.9721629232476516  0.5432648707708694  1.0000
  C   C11       1.0  0.014001358111585203  0.0278386626718898  0.4567355580593855  1.0000
  C   C12       1.0  0.4860000316433856  0.9721623836311938  0.956734786920336  1.0000
  C   C13       1.0  0.25670001154305316  0.3019172482140392  0.8873353686521456  1.0000
  C   C14       1.0  0.24329999982703052  0.698081090543454  0.38733461681149356  1.0000
  C   C15       1.0  0.5449287405763671  0.3017769371990867  0.6126805633667445  1.0000
  C   C16       1.0  0.9550715598296126  0.6982219367055224  0.1126803922518533  1.0000
  C   C17       1.0  0.7433001443575551  0.6980813581475689  0.1126644925672124  1.0000
  C   C18       1.0  0.7567001560740325  0.3019175158192625  0.6126646767961716  1.0000
  C   C19       1.0  0.455071415324241  0.6982216691625212  0.3873192978526205  1.0000
  C   C20       1.0  0.044928596070533955  0.30177666965497724  0.8873200365792046  1.0000
  N   N1        1.0  0.9282959681653011  0.8565991476763133  0.7690018063887367  1.0000
  N   N2        1.0  0.5717001909003017  0.1434020922181318  0.269002511803059  1.0000
  N   N3        1.0  0.4282947305695259  0.8565994918067403  0.7309979170269472  1.0000
  N   N4        1.0  0.0716995531340743  0.14340094704270712  0.23099862244173153  1.0000
  N   N5        1.0  0.8103479595020034  0.6207739963100491  0.8576077626925313  1.0000
  N   N6        1.0  0.6896488019148636  0.37922838632132294  0.3576071987738986  1.0000
  N   N7        1.0  0.3103474644796195  0.6207731980215458  0.6423920948327506  1.0000
  N   N8        1.0  0.18964830689110812  0.37922758802948664  0.1423932337492104  1.0000
  N   N9        1.0  0.7640721321055396  0.5280586153090641  0.7882541534592493  1.0000
  N   N10       1.0  0.735929375640609  0.47194255047925554  0.288253536809691  1.0000
  N   N11       1.0  0.2640736153730289  0.5280590354436187  0.7117451891854645  1.0000
  N   N12       1.0  0.23592876888879744  0.4719414806730669  0.21174627537138954  1.0000
  O   O1        1.0  0.5591971424262284  0.11872521527231332  0.9111575284717333  1.0000
  O   O2        1.0  0.9408055122459373  0.8812754696704275  0.41115781427486553  1.0000
  O   O3        1.0  0.0591967336726  0.1187246266285982  0.5888420469441159  1.0000
  O   O4        1.0  0.44080510349230934  0.8812748810267056  0.08884233274724102  1.0000
  O   O5        1.0  0.604420893079002  0.20848261599462597  0.062239146853194406  1.0000
  O   O6        1.0  0.8955787434937081  0.7915149657634332  0.5622390460511895  1.0000
  O   O7        1.0  0.10442006748361618  0.2084836402835037  0.4377602475564331  1.0000
  O   O8        1.0  0.3955785177274081  0.7915145007453506  0.9377607143665899  1.0000
  O   O9        1.0  0.3030688434131008  0.23832589769644133  0.8285546567119441  1.0000
  O   O10       1.0  0.19693126265258357  0.7616726711842151  0.32855386383594265  1.0000
  O   O11       1.0  0.4349279188744149  0.2377628754971824  0.6714448508569293  1.0000
  O   O12       1.0  0.06507109537054849  0.7622363081423843  0.17144461703672684  1.0000
  O   O13       1.0  0.6969320575821527  0.7616741982879064  0.17144463689529493  1.0000
  O   O14       1.0  0.8030681481538267  0.23832444555576165  0.6714459973838416  1.0000
  O   O15       1.0  0.5650716371966457  0.7622372201702776  0.328555010361967  1.0000
  O   O16       1.0  0.9349277156063209  0.23776229790344425  0.8285552441825957  1.0000
  O   O17       1.0  0.363129015959153  0.36479379090040726  0.9473858329417411  1.0000
  O   O18       1.0  0.13687015357557908  0.6352028231413059  0.4473851121851382  1.0000
  O   O19       1.0  0.5014557337396043  0.36497151780314147  0.5527072584182096  1.0000
  O   O20       1.0  0.9985431730943262  0.6350246116490226  0.05270769553259671  1.0000
  O   O21       1.0  0.6368703948472574  0.6352033258395624  0.0526140282780503  1.0000
  O   O22       1.0  0.8631286574012834  0.3647957829045227  0.5526147490341771  1.0000
  O   O23       1.0  0.4985423321430673  0.6350255986210556  0.4472926028015324  1.0000
  O   O24       1.0  0.0014568375416317409  0.3649710157850948  0.9472921656876496  1.0000
