data_image0
_chemical_formula_structural       Zn2H24C52S4N4O30
_chemical_formula_sum              "Zn2 H24 C52 S4 N4 O30"
_cell_length_a       14.661957539501183
_cell_length_b       15.932889792745451
_cell_length_c       23.61279243597369
_cell_angle_alpha    91.6867007696617
_cell_angle_beta     91.52053824163686
_cell_angle_gamma    88.24705975904769

_space_group_name_H-M_alt    "P 1"
_space_group_IT_number       1

loop_
  _space_group_symop_operation_xyz
  'x, y, z'

loop_
  _atom_site_type_symbol
  _atom_site_label
  _atom_site_symmetry_multiplicity
  _atom_site_fract_x
  _atom_site_fract_y
  _atom_site_fract_z
  _atom_site_occupancy
  Zn  Zn1       1.0  0.5951509175354347  0.5045685214205377  0.5096058374513035  1.0000
  Zn  Zn2       1.0  0.4028950923685244  0.5085588621031647  0.4962452284751322  1.0000
  H   H1        1.0  0.684078285375094  0.42901694191832  0.05341095426918231  1.0000
  H   H2        1.0  0.2635202056547997  0.6158457754334135  0.9467515763853528  1.0000
  H   H3        1.0  0.9465357401665814  0.3555548785638933  0.47547553953725  1.0000
  H   H4        1.0  0.051265107396538695  0.6412262614413038  0.5201441859924785  1.0000
  H   H5        1.0  0.9286115732427122  0.5968473106193173  0.4296884430733884  1.0000
  H   H6        1.0  0.06874498097328542  0.3996387429584515  0.5658562916573899  1.0000
  H   H7        1.0  0.6778550386370841  0.42181339103670007  0.9459696820362282  1.0000
  H   H8        1.0  0.2702476587871985  0.6241517572188258  0.05381781236513211  1.0000
  H   H9        1.0  0.5042034816829571  0.6247805253492373  0.6792706461050245  1.0000
  H   H10       1.0  0.40030898457662545  0.4468492728192857  0.32345368746253916  1.0000
  H   H11       1.0  0.5755849327647411  0.9328616529691303  0.42274214122577564  1.0000
  H   H12       1.0  0.41838549432480227  0.07875093379120561  0.580100528136697  1.0000
  H   H13       1.0  0.338048195981834  0.9596901594676339  0.503340459434  1.0000
  H   H14       1.0  0.6556469633830702  0.051526073337839796  0.4996826523050828  1.0000
  H   H15       1.0  0.011145808653097309  0.44870042332176746  0.3642774556174474  1.0000
  H   H16       1.0  0.9853707096842044  0.5517067123950099  0.6311206503203693  1.0000
  H   H17       1.0  0.5111672335038122  0.6900230796542742  0.7678665931539046  1.0000
  H   H18       1.0  0.34867817313047317  0.39729696212672383  0.23578611076617056  1.0000
  H   H19       1.0  0.5600665294217394  0.35021624037172217  0.5866146475239589  1.0000
  H   H20       1.0  0.6636378469460738  0.518988731365269  0.38794119820976664  1.0000
  H   H21       1.0  0.5083092183812639  0.25666030547538543  0.7711059294237402  1.0000
  H   H22       1.0  0.7286574718840769  0.656682519665999  0.22978768831161744  1.0000
  H   H23       1.0  0.3974362873956282  0.002990602729624902  0.37822672246782224  1.0000
  H   H24       1.0  0.5988098076479388  0.008167834961469101  0.6238545695166877  1.0000
  C   C1        1.0  0.49459853837376505  0.3449957793545694  0.4917135275258816  1.0000
  C   C2        1.0  0.4961770910246273  0.6656798142775241  0.5103281546181933  1.0000
  C   C3        1.0  0.48315819959673695  0.5733828923786888  0.7614497005058142  1.0000
  C   C4        1.0  0.43785166408852655  0.4828395527386959  0.23991986937186743  1.0000
  C   C5        1.0  0.4898092301651785  0.568953324831426  0.7028315094736755  1.0000
  C   C6        1.0  0.44532254226560747  0.4840216409745536  0.2987643533562761  1.0000
  C   C7        1.0  0.48319897332074657  0.4920567943693753  0.6736709536107668  1.0000
  C   C8        1.0  0.5128171664338126  0.5300100801248532  0.3272204277780376  1.0000
  C   C9        1.0  0.46761706252441115  0.4180773744818183  0.7023995275751178  1.0000
  C   C10       1.0  0.5705775126971916  0.5805030565854634  0.2966317529398809  1.0000
  C   C11       1.0  0.4513450134481546  0.4240032887377865  0.7612157946169589  1.0000
  C   C12       1.0  0.5531598167763933  0.5894878771270343  0.23791329921331797  1.0000
  C   C13       1.0  0.4625295376296493  0.5009314139048084  0.790578806478493  1.0000
  C   C14       1.0  0.4906232405587333  0.5371878587429677  0.20944144315808444  1.0000
  C   C15       1.0  0.5411476841165097  0.9661798086088637  0.4576275313050005  1.0000
  C   C16       1.0  0.45254306764805113  0.044981501039472994  0.5453048647105022  1.0000
  C   C17       1.0  0.4535933267495764  0.0249496121767052  0.45200441599618574  1.0000
  C   C18       1.0  0.5400651310105503  0.9861833377383105  0.5508564129068532  1.0000
  C   C19       1.0  0.49589729353937884  0.2553418175839468  0.4887372998233631  1.0000
  C   C20       1.0  0.4959988962206979  0.7557730075335058  0.5134089137629942  1.0000
  C   C21       1.0  0.5854345318178462  0.030468150662493095  0.500421073734401  1.0000
  C   C22       1.0  0.4082750412442095  0.9806945369588785  0.5025258301308426  1.0000
  C   C23       1.0  0.49244171925510477  0.4959570354276011  0.610483985839501  1.0000
  C   C24       1.0  0.5114494358805715  0.5212315486746704  0.39093909821214373  1.0000
  C   C25       1.0  0.4981703483338721  0.09095359117269909  0.49492256606156826  1.0000
  C   C26       1.0  0.4954648493725672  0.9202248032576462  0.5077334925260858  1.0000
  C   C27       1.0  0.4972630015224979  0.1789391463638879  0.4904990463175666  1.0000
  C   C28       1.0  0.4958124342278367  0.8321170877778952  0.5123900342114709  1.0000
  C   C29       1.0  0.9707165239162665  0.4185731151828236  0.4854862461770608  1.0000
  C   C30       1.0  0.026910695429691597  0.5782615111214042  0.5101771288470262  1.0000
  C   C31       1.0  0.024310619850979296  0.4752383322811511  0.4447103337449505  1.0000
  C   C32       1.0  0.9733635769675646  0.5216606462375921  0.5509898215611885  1.0000
  C   C33       1.0  0.036924208597234616  0.4430715917860367  0.5357665292395382  1.0000
  C   C34       1.0  0.9606963434599722  0.5537090027602927  0.4598916996128467  1.0000
  C   C35       1.0  0.0915623086721453  0.4998162418721321  0.4956179912246412  1.0000
  C   C36       1.0  0.9061120692838217  0.49697178484654353  0.5000888593909069  1.0000
  C   C37       1.0  0.18740176648367432  0.5019720168295904  0.49263566080783516  1.0000
  C   C38       1.0  0.810399123715314  0.4958840935362189  0.5041343430078912  1.0000
  C   C39       1.0  0.4039167187600938  0.5671861181502746  0.12259739940021322  1.0000
  C   C40       1.0  0.5440985978800867  0.4764943883246033  0.8781270510707772  1.0000
  C   C41       1.0  0.5586044222577728  0.4935318614177789  0.12167687530865832  1.0000
  C   C42       1.0  0.3883542839917028  0.5477814920446845  0.8776300289010024  1.0000
  C   C43       1.0  0.5529208900057085  0.4901332891406866  0.0592086280496744  1.0000
  C   C44       1.0  0.39387390505828523  0.5531561177033308  0.9404139769671646  1.0000
  C   C45       1.0  0.4750901773326177  0.523898613873065  0.030216741876408507  1.0000
  C   C46       1.0  0.4715182056105007  0.5196364325294808  0.9698509683279044  1.0000
  C   C47       1.0  0.4010516385070487  0.5617950800593547  0.059839968697815514  1.0000
  C   C48       1.0  0.5460714924224703  0.4821388757397357  0.9406271806252493  1.0000
  C   C49       1.0  0.6252553959308571  0.45389788235669215  0.029479514802638107  1.0000
  C   C50       1.0  0.3223751349566939  0.5904350286685797  0.9704470031982952  1.0000
  C   C51       1.0  0.6218959231411674  0.4500043381951001  0.9701146837828178  1.0000
  C   C52       1.0  0.3259900107358362  0.5948640349721046  0.029991275436515308  1.0000
  S   S1        1.0  0.48349901850880883  0.3190943285247058  0.6631771507125138  1.0000
  S   S2        1.0  0.6659467175608429  0.6263652756209552  0.33541981516172836  1.0000
  S   S3        1.0  0.40231683816325875  0.3374778351913576  0.7976209334533736  1.0000
  S   S4        1.0  0.594740519098821  0.6795278130197316  0.20100440407319556  1.0000
  N   N1        1.0  0.4830120102706347  0.5319141379351108  0.1490872810970245  1.0000
  N   N2        1.0  0.4638041679296521  0.5080983159865156  0.8510535699565339  1.0000
  N   N3        1.0  0.2661987454943074  0.5049298888959441  0.49036857498463615  1.0000
  N   N4        1.0  0.731740336177616  0.4946314102016203  0.5082532767121962  1.0000
  O   O1        1.0  0.5635042224040065  0.37913440795306746  0.5182991668139608  1.0000
  O   O2        1.0  0.4197991772337276  0.6309405692868352  0.5167954126623684  1.0000
  O   O3        1.0  0.4276426103764095  0.3856011002332309  0.46993823601727774  1.0000
  O   O4        1.0  0.5725257561157521  0.6281387296366745  0.5007464086028081  1.0000
  O   O5        1.0  0.5688324105939488  0.5193691974113223  0.593617804926204  1.0000
  O   O6        1.0  0.4354076317078892  0.5359172231591457  0.41276412939079427  1.0000
  O   O7        1.0  0.42224151160553447  0.47846526270186734  0.5803613023932855  1.0000
  O   O8        1.0  0.5839801816658369  0.4946790659969195  0.41793870453769716  1.0000
  O   O9        1.0  0.3430829195783788  0.5998529894569913  0.1511849510523646  1.0000
  O   O10       1.0  0.607381063853353  0.4465060620689981  0.8502450859247973  1.0000
  O   O11       1.0  0.6239501864378738  0.4649738363254769  0.14934394703411163  1.0000
  O   O12       1.0  0.3233437031298365  0.5750973186610011  0.8492268163073861  1.0000
  O   O13       1.0  0.05982060080174282  0.4531273700439369  0.3931120960789088  1.0000
  O   O14       1.0  0.9372015683482147  0.5437525914440966  0.602325420768544  1.0000
  O   O15       1.0  0.49727054542558585  0.6447722556862984  0.7928348687970374  1.0000
  O   O16       1.0  0.3811446368298448  0.43146451817619874  0.209856954558802  1.0000
  O   O17       1.0  0.5174531721690981  0.25620003216133824  0.7023907983450002  1.0000
  O   O18       1.0  0.40711345511670066  0.3009386850257414  0.6261462524362856  1.0000
  O   O19       1.0  0.5707346849734451  0.33735384707596683  0.6280657725901051  1.0000
  O   O20       1.0  0.7350254777569559  0.6545017090226537  0.29803952846509674  1.0000
  O   O21       1.0  0.6306591751430588  0.683456545614838  0.3781431790325769  1.0000
  O   O22       1.0  0.71205398946951  0.546011523070213  0.3623773285238985  1.0000
  O   O23       1.0  0.37099151144904136  0.36563906871013063  0.8521242439947587  1.0000
  O   O24       1.0  0.3398791966504362  0.30097514706206857  0.7565516105923324  1.0000
  O   O25       1.0  0.4865848596123216  0.2758627567924775  0.8096745731514404  1.0000
  O   O26       1.0  0.5525612343632248  0.684108085988477  0.14570054908809033  1.0000
  O   O27       1.0  0.5842349560686132  0.7483548081967014  0.24131566257506176  1.0000
  O   O28       1.0  0.6987063257405096  0.6573432046976463  0.19079688795958566  1.0000
  O   O29       1.0  0.41172861581492987  0.0518043556417283  0.40236018232879905  1.0000
  O   O30       1.0  0.5819100909441205  0.9592854627769679  0.6004980690761458  1.0000
