data_image0
_chemical_formula_structural       Cd2H40C36N6O12
_chemical_formula_sum              "Cd2 H40 C36 N6 O12"
_cell_length_a       9.551501665307068
_cell_length_b       10.41426068177952
_cell_length_c       11.765019806845073
_cell_angle_alpha    108.26998689169545
_cell_angle_beta     96.35415041776794
_cell_angle_gamma    119.40867503946517

_space_group_name_H-M_alt    "P 1"
_space_group_IT_number       1

loop_
  _space_group_symop_operation_xyz
  'x, y, z'

loop_
  _atom_site_type_symbol
  _atom_site_label
  _atom_site_symmetry_multiplicity
  _atom_site_fract_x
  _atom_site_fract_y
  _atom_site_fract_z
  _atom_site_occupancy
  Cd  Cd1       1.0  0.9908375159200559  0.3310790450031504  0.059215580561357214  1.0000
  Cd  Cd2       1.0  0.009163088305406571  0.668922064509843  0.9407869800540706  1.0000
  H   H1        1.0  0.15907868180421053  0.7252552186550788  0.27185554004483947  1.0000
  H   H2        1.0  0.8409265060885999  0.2747484178938606  0.7281473110477633  1.0000
  H   H3        1.0  0.5325403400663191  0.30832277264400426  0.20358582617381418  1.0000
  H   H4        1.0  0.46745234800503255  0.6916661396567962  0.7964125127637088  1.0000
  H   H5        1.0  0.7395298848907998  0.16062210790594375  0.2187227835004109  1.0000
  H   H6        1.0  0.2604753250381365  0.8393815644616327  0.7812783797414651  1.0000
  H   H7        1.0  0.7537723514134099  0.5747264782656528  0.20513045706903196  1.0000
  H   H8        1.0  0.2462243602945762  0.4252602135527894  0.7948633566018656  1.0000
  H   H9        1.0  0.8110013651756133  0.6395921470000019  0.5684507946959626  1.0000
  H   H10       1.0  0.18899852854220708  0.3604114367501552  0.4315481627184922  1.0000
  H   H11       1.0  0.20775119048226987  0.9409835436656094  0.4750656868033402  1.0000
  H   H12       1.0  0.7922508054802576  0.05902003613101669  0.5249360095778782  1.0000
  H   H13       1.0  0.1106536634888258  0.8782294691542987  0.5844100051007216  1.0000
  H   H14       1.0  0.8893511636411303  0.12177539555857213  0.41559146635407257  1.0000
  H   H15       1.0  0.8401481661250187  0.8293190347427598  0.46115480221329347  1.0000
  H   H16       1.0  0.15985597615447486  0.1706846127376096  0.5388462574332422  1.0000
  H   H17       1.0  0.9447701754013593  0.8977549307964027  0.35662030635559455  1.0000
  H   H18       1.0  0.05523325999153169  0.10224746363283542  0.6433820293334164  1.0000
  H   H19       1.0  0.6593910812527569  0.7467165185474871  0.15898176349570287  1.0000
  H   H20       1.0  0.3406087416380145  0.2532738319463519  0.84101423312066  1.0000
  H   H21       1.0  0.3978214894905037  0.0448190864930993  0.32983536810850467  1.0000
  H   H22       1.0  0.6021794498406408  0.9551844863256349  0.6701653807520174  1.0000
  H   H23       1.0  0.5462504183733259  0.0586531573099052  0.4457355020581274  1.0000
  H   H24       1.0  0.4537501712130307  0.9413516615820683  0.5542630232392226  1.0000
  H   H25       1.0  0.5327763787480961  0.9814973765614284  0.28341620537273826  1.0000
  H   H26       1.0  0.46722350395166495  0.018506189279413797  0.7165835959670729  1.0000
  H   H27       1.0  0.5751170471712257  0.460900366611888  0.6125839269951782  1.0000
  H   H28       1.0  0.42487862002106874  0.539103189226701  0.38741124033646906  1.0000
  H   H29       1.0  0.5711464430545661  0.28606708384074153  0.6052618895231063  1.0000
  H   H30       1.0  0.4288473945113579  0.7139351045129061  0.39473866988248557  1.0000
  H   H31       1.0  0.42206004122999724  0.2672399128291048  0.48669633885543107  1.0000
  H   H32       1.0  0.577934952129894  0.7327624436862977  0.5132975727426015  1.0000
  H   H33       1.0  0.9133346086262222  0.06661236887008219  0.8323485496285767  1.0000
  H   H34       1.0  0.08666038835470838  0.9333862603570252  0.16765024121288968  1.0000
  H   H35       1.0  0.10965510616079402  0.18130586451975012  0.8944130255059902  1.0000
  H   H36       1.0  0.8903375929286238  0.818683065690365  0.1055844695061693  1.0000
  H   H37       1.0  0.7121413282870535  0.009732682111121004  0.9306176026903185  1.0000
  H   H38       1.0  0.28785938974010605  0.9902648792067553  0.0693813979149311  1.0000
  H   H39       1.0  0.6434695530676677  0.1259321316553041  0.9652149453409108  1.0000
  H   H40       1.0  0.3565304360367632  0.8740641407928037  0.034787019157533815  1.0000
  C   C1        1.0  0.3980832375132265  0.569006540111978  0.12343151470361848  1.0000
  C   C2        1.0  0.6019213242404788  0.43099224146275356  0.8765715841973573  1.0000
  C   C3        1.0  0.3301053476486898  0.33844093797024033  0.15443897384604802  1.0000
  C   C4        1.0  0.6698893252446254  0.6615552458604483  0.8455607848249753  1.0000
  C   C5        1.0  0.33543117925423627  0.6610998073997224  0.08269227451074106  1.0000
  C   C6        1.0  0.6645704705845432  0.33890129118184836  0.917312077550754  1.0000
  C   C7        1.0  0.1924780184037047  0.1869573528093227  0.16251788876648016  1.0000
  C   C8        1.0  0.807519507693172  0.8130401517562333  0.8374799571273852  1.0000
  C   C9        1.0  0.8743182335082054  0.4233319682624384  0.31399275966406737  1.0000
  C   C10       1.0  0.12568445832285136  0.5766728466760043  0.6860085046000464  1.0000
  C   C11       1.0  0.06740067234614591  0.6426377154791395  0.30341092653041796  1.0000
  C   C12       1.0  0.9325995821345359  0.3573646401070931  0.6965894105218453  1.0000
  C   C13       1.0  0.49908575190617915  0.3860186481114595  0.18244355676696236  1.0000
  C   C14       1.0  0.5009090017346338  0.6139739337961531  0.8175551736699658  1.0000
  C   C15       1.0  0.6562741202528385  0.241394141726829  0.3747914318969733  1.0000
  C   C16       1.0  0.34372816674310497  0.7586118297382709  0.6252118284307854  1.0000
  C   C17       1.0  0.7561386315257863  0.26390483409946347  0.2956294497112352  1.0000
  C   C18       1.0  0.24386015047032564  0.7360986531262128  0.7043727798093328  1.0000
  C   C19       1.0  0.6210850006199564  0.5341268862057262  0.18433663226913663  1.0000
  C   C20       1.0  0.3789123151909947  0.46586462476828666  0.8156586214441076  1.0000
  C   C21       1.0  0.7956468148236129  0.5362631674832201  0.49256049697049775  1.0000
  C   C22       1.0  0.2043498428916735  0.46374028787735  0.5074406814340192  1.0000
  C   C23       1.0  0.8953971827671837  0.5571257836220839  0.4131881160827432  1.0000
  C   C24       1.0  0.10460022952800321  0.4428752691385894  0.5868132898213075  1.0000
  C   C25       1.0  0.673344693572666  0.3770507594866146  0.4712980720381238  1.0000
  C   C26       1.0  0.3266562788126776  0.6229528670600715  0.5287001450463079  1.0000
  C   C27       1.0  0.08537597827374542  0.8630637491755663  0.4859183387672842  1.0000
  C   C28       1.0  0.9146274791552785  0.1369386810723014  0.514082309070993  1.0000
  C   C29       1.0  0.9645255348454712  0.9123428172671806  0.45501741618704716  1.0000
  C   C30       1.0  0.0354817883462317  0.0876608690561866  0.5449856420962291  1.0000
  C   C31       1.0  0.5706215264077271  0.6288503226832132  0.1573147071248754  1.0000
  C   C32       1.0  0.42937789164792406  0.3711411843372687  0.8426832855551323  1.0000
  C   C33       1.0  0.5267361634254114  0.0721201142538703  0.35729589743075246  1.0000
  C   C34       1.0  0.47326547177426176  0.92788469370668  0.6427044193126645  1.0000
  C   C35       1.0  0.5550497673190762  0.3469721866817039  0.5484284750664941  1.0000
  C   C36       1.0  0.4449515622080753  0.6530339389893597  0.45156624241230486  1.0000
  N   N1        1.0  0.9832422645241365  0.4814641576295884  0.24684808346485448  1.0000
  N   N2        1.0  0.016762293608529422  0.5185383512334454  0.7531501361926799  1.0000
  N   N3        1.0  0.28189953343559887  0.42736366752721  0.12292367183790985  1.0000
  N   N4        1.0  0.7180993293080178  0.5726362177753967  0.8770775294485629  1.0000
  N   N5        1.0  0.02102083988940244  0.6949760365218934  0.40473104458418147  1.0000
  N   N6        1.0  0.9789783138876302  0.30502624044917337  0.5952717206488243  1.0000
  O   O1        1.0  0.17562243937116062  0.5984502217911613  0.054226353663402366  1.0000
  O   O2        1.0  0.8243788386867053  0.4015520870450118  0.9457774626856476  1.0000
  O   O3        1.0  0.014008873792697288  0.18456012166674177  0.8610818649285221  1.0000
  O   O4        1.0  0.9859883282165641  0.8154349375023954  0.1389169487949004  1.0000
  O   O5        1.0  0.7221933244027525  0.09964435772262449  0.0006707469054206102  1.0000
  O   O6        1.0  0.2778088330547703  0.9003520182278563  0.9993288930076144  1.0000
  O   O7        1.0  0.044528044290459014  0.15524761108522261  0.14246423085327106  1.0000
  O   O8        1.0  0.9554701446207544  0.8447510748941979  0.8575357146995868  1.0000
  O   O9        1.0  0.2419110446998829  0.1041179087738442  0.19269753602520004  1.0000
  O   O10       1.0  0.7580847178790149  0.8958783357626814  0.8073006383904369  1.0000
  O   O11       1.0  0.4461321385169583  0.7914181245026983  0.07989881806229698  1.0000
  O   O12       1.0  0.5538761862158025  0.2085854792519726  0.9201094073684997  1.0000
