data_image0
_chemical_formula_structural       Co2H44C44N6Cl2O4
_chemical_formula_sum              "Co2 H44 C44 N6 Cl2 O4"
_cell_length_a       9.339013752015342
_cell_length_b       10.717213588128686
_cell_length_c       11.361
_cell_angle_alpha    109.6240856747996
_cell_angle_beta     102.44193220708289
_cell_angle_gamma    98.50256723825048

_space_group_name_H-M_alt    "P 1"
_space_group_IT_number       1

loop_
  _space_group_symop_operation_xyz
  'x, y, z'

loop_
  _atom_site_type_symbol
  _atom_site_label
  _atom_site_symmetry_multiplicity
  _atom_site_fract_x
  _atom_site_fract_y
  _atom_site_fract_z
  _atom_site_occupancy
  Co  Co1       1.0  0.06576902382055039  0.3646208783894522  0.9054230630700816  1.0000
  Co  Co2       1.0  0.9342314044469829  0.635379198846465  0.0945780054725062  1.0000
  H   H1        1.0  0.17644841176115017  0.5724854897870557  0.6654084947569743  1.0000
  H   H2        1.0  0.8235498234483458  0.42751458744886156  0.33458778436282444  1.0000
  H   H3        1.0  0.0762782707154699  0.240880161118632  0.6261201329041911  1.0000
  H   H4        1.0  0.9237235244692954  0.7591209364068447  0.37387709994973045  1.0000
  H   H5        1.0  0.2112235274498389  0.7876145628186322  0.47001861061978195  1.0000
  H   H6        1.0  0.7887782677349264  0.2123865347068374  0.5299803826425562  1.0000
  H   H7        1.0  0.6231957739497672  0.2353297859376227  0.07897463894172321  1.0000
  H   H8        1.0  0.3768035577887474  0.7646702912983017  0.9210244749915761  1.0000
  H   H9        1.0  0.6692383046407713  0.1886872489155564  0.9295854078872594  1.0000
  H   H10       1.0  0.33075802287503814  0.8113097674516965  0.07041396465820773  1.0000
  H   H11       1.0  0.9788834294129459  0.8511265673485724  0.9147579393149388  1.0000
  H   H12       1.0  0.021113994631882297  0.1488704490186805  0.0852398670229917  1.0000
  H   H13       1.0  0.544722142448215  0.0610408632269213  0.6935364801845411  1.0000
  H   H14       1.0  0.4552771892902996  0.9389592140089961  0.30646351395296284  1.0000
  H   H15       1.0  0.0224157386547361  0.0133872192555273  0.8019899475075223  1.0000
  H   H16       1.0  0.9775751062160011  0.9866097971117257  0.1980075738293579  1.0000
  H   H17       1.0  0.4418278899994519  0.2747915250692472  0.16626166682289073  1.0000
  H   H18       1.0  0.5581717271033996  0.7252054912980057  0.8337365279167914  1.0000
  H   H19       1.0  0.2751414793714702  0.3335142904264501  0.14079784839507428  1.0000
  H   H20       1.0  0.7248567708141423  0.6664817056512433  0.8592033018290623  1.0000
  H   H21       1.0  0.1963877632719573  0.5786674242028198  0.3409564866027708  1.0000
  H   H22       1.0  0.8036151284418266  0.4213336733226498  0.659044461268863  1.0000
  H   H23       1.0  0.12446869201913562  0.5129077217824829  0.4452624543078303  1.0000
  H   H24       1.0  0.8755311804958268  0.4870943960325461  0.5547374018884598  1.0000
  H   H25       1.0  0.2547715927908456  0.3282689818224824  0.3901600729366166  1.0000
  H   H26       1.0  0.745229105864908  0.6717321157029943  0.6098422469416747  1.0000
  H   H27       1.0  0.13201228042915147  0.949996706418588  0.6176631781171338  1.0000
  H   H28       1.0  0.8679826651933028  0.0500033708173291  0.3823360392168668  1.0000
  H   H29       1.0  0.5067592392649871  0.9510578075561398  0.8580658061895151  1.0000
  H   H30       1.0  0.49324559009471597  0.0489381885215607  0.1419382696482998  1.0000
  H   H31       1.0  0.6638785626477315  0.9983798574220515  0.9968332559465267  1.0000
  H   H32       1.0  0.3361259663715117  0.0016232806825371  0.0031730294100072204  1.0000
  H   H33       1.0  0.39040468070673023  0.0250858592969792  0.46921684112916756  1.0000
  H   H34       1.0  0.6096006594771949  0.9749203396762739  0.5307835159881976  1.0000
  H   H35       1.0  0.16396322690316373  0.1143540533617511  0.4371269426239267  1.0000
  H   H36       1.0  0.8360402055870679  0.8856490847428304  0.5628721068980695  1.0000
  H   H37       1.0  0.5057455610440087  0.7468744008741766  0.5691284628512534  1.0000
  H   H38       1.0  0.4942559637525362  0.2531256763617407  0.4308736800964185  1.0000
  H   H39       1.0  0.49988824488543315  0.5277488536543586  0.2796226982607664  1.0000
  H   H40       1.0  0.5001113722174253  0.4722481627128944  0.7203781370915365  1.0000
  H   H41       1.0  0.4192307338181323  0.5449652196110506  0.13087940759140082  1.0000
  H   H42       1.0  0.5807669606149162  0.4550328170457547  0.8691205302864446  1.0000
  H   H43       1.0  0.5887222851492809  0.48707909168921765  0.15257644046474178  1.0000
  H   H44       1.0  0.41127596503633157  0.5129169043884758  0.8474220691467806  1.0000
  C   C1        1.0  0.1420127338360757  0.6686314557443325  0.6927172937127324  1.0000
  C   C2        1.0  0.8579857717616477  0.3313696417811443  0.3072819971511863  1.0000
  C   C3        1.0  0.2612421226169346  0.21907555303160822  0.7649672137613521  1.0000
  C   C4        1.0  0.7387577498980349  0.7809265647834209  0.23503176223072594  1.0000
  C   C5        1.0  0.177375701450579  0.2020550826695384  0.6403840343556056  1.0000
  C   C6        1.0  0.8226263641224135  0.7979470351454907  0.3596153300382312  1.0000
  C   C7        1.0  0.07444508787305178  0.70338966002587  0.7946312704971135  1.0000
  C   C8        1.0  0.9255564369234932  0.2966104172100472  0.20536823183793734  1.0000
  C   C9        1.0  0.39174350365771465  0.1678559970643221  0.7822168876904884  1.0000
  C   C10       1.0  0.6082569246098188  0.8321440801716022  0.2177850610563112  1.0000
  C   C11       1.0  0.3540894685342906  0.2708868769409847  0.9753566511178704  1.0000
  C   C12       1.0  0.6459079555105305  0.7291101394262682  0.024642035424264526  1.0000
  C   C13       1.0  0.1610266088837591  0.7563171807087841  0.6255241998837847  1.0000
  C   C14       1.0  0.8389721671021917  0.2436849371062451  0.37447546211162575  1.0000
  C   C15       1.0  0.5819098186254266  0.1668989654614208  0.975985679095274  1.0000
  C   C16       1.0  0.41808787580762186  0.8330990711953916  0.02401425878257151  1.0000
  C   C17       1.0  0.030546305381406576  0.8269681512573968  0.8351791005518406  1.0000
  C   C18       1.0  0.9694513890516416  0.1730298853994157  0.164819957121793  1.0000
  C   C19       1.0  0.046255859541815894  0.6084976299321028  0.8611131892419195  1.0000
  C   C20       1.0  0.9537448391139377  0.391503467593374  0.13888649002375084  1.0000
  C   C21       1.0  0.44261585543186754  0.0980865566915199  0.6779729977114146  1.0000
  C   C22       1.0  0.5573848432238862  0.9019145408339568  0.3220266815542558  1.0000
  C   C23       1.0  0.055564703910960085  0.916540391609658  0.7724312031684804  1.0000
  C   C24       1.0  0.9444297009350393  0.0834576450471545  0.2275655114941061  1.0000
  C   C25       1.0  0.3840796250335927  0.3349590204368056  0.11906239829440318  1.0000
  C   C26       1.0  0.6159172582347807  0.6650359553513354  0.8809364261889527  1.0000
  C   C27       1.0  0.2188305194080584  0.5861114567985339  0.4426606100390913  1.0000
  C   C28       1.0  0.7811712757767069  0.4138896407269428  0.5573383832232537  1.0000
  C   C29       1.0  0.3625002123856689  0.4040591508613076  0.4385259853438868  1.0000
  C   C30       1.0  0.6375015827990964  0.5959419466641691  0.5614782891436934  1.0000
  C   C31       1.0  0.3645013586771242  0.5431633882563318  0.47766350187504975  1.0000
  C   C32       1.0  0.6354982434496179  0.4568377092691378  0.5223395040065739  1.0000
  C   C33       1.0  0.11848972008777282  0.8816873003994702  0.6691306473086841  1.0000
  C   C34       1.0  0.8815041290056626  0.1183127768364471  0.3308674956202253  1.0000
  C   C35       1.0  0.552955275565843  0.0175306151397336  0.9621085426434067  1.0000
  C   C36       1.0  0.4470473457597138  0.9824694620961836  0.037896435117765644  1.0000
  C   C37       1.0  0.3573794145155702  0.0806671531133176  0.5543516610413235  1.0000
  C   C38       1.0  0.6426242883628887  0.9193370052808233  0.44564863981638336  1.0000
  C   C39       1.0  0.22737611060519214  0.1316683671157577  0.5357989580971606  1.0000
  C   C40       1.0  0.7726273218850396  0.868334770988824  0.4641992112206312  1.0000
  C   C41       1.0  0.5035388306500721  0.6385441370471128  0.5397526440438369  1.0000
  C   C42       1.0  0.4964626941464729  0.3614559401888116  0.46025037910803956  1.0000
  C   C43       1.0  0.47916668604559476  0.4826755219684031  0.17364097495723024  1.0000
  C   C44       1.0  0.520831834528245  0.5173214943988498  0.8263587859899887  1.0000
  N   N1        1.0  0.4476730070785635  0.2024591173334471  0.9154484686611968  1.0000
  N   N2        1.0  0.552323320437246  0.7975378990338058  0.08455090388427072  1.0000
  N   N3        1.0  0.2403540385929617  0.2817601027321714  0.8869850738170584  1.0000
  N   N4        1.0  0.7596455635337804  0.7182409947933053  0.1130144112477325  1.0000
  N   N5        1.0  0.21740890795464907  0.7243035553310904  0.5195976154296603  1.0000
  N   N6        1.0  0.782592061089332  0.2756985624839388  0.480402434967509  1.0000
  Cl  Cl1       1.0  0.8469975221022922  0.222656769370829  0.7717257049625205  1.0000
  Cl  Cl2       1.0  0.1530056549758285  0.7773412672859834  0.22827432371549602  1.0000
  O   O1        1.0  0.11777194454950292  0.5138708751227128  0.8501310627632678  1.0000
  O   O2        1.0  0.8822271168007916  0.4861281818236449  0.14986679983432794  1.0000
  O   O3        1.0  0.9486417010513791  0.6255966625899276  0.9249867772558106  1.0000
  O   O4        1.0  0.0513628279678713  0.3744064755146539  0.07501510707969321  1.0000
