data_image0
_chemical_formula_structural       Co4H56C60S4N12O20
_chemical_formula_sum              "Co4 H56 C60 S4 N12 O20"
_cell_length_a       11.31348131227613
_cell_length_b       11.417596673168788
_cell_length_c       17.823788163494235
_cell_angle_alpha    98.40519086136163
_cell_angle_beta     90.15395220264047
_cell_angle_gamma    89.94569343612001

_space_group_name_H-M_alt    "P 1"
_space_group_IT_number       1

loop_
  _space_group_symop_operation_xyz
  'x, y, z'

loop_
  _atom_site_type_symbol
  _atom_site_label
  _atom_site_symmetry_multiplicity
  _atom_site_fract_x
  _atom_site_fract_y
  _atom_site_fract_z
  _atom_site_occupancy
  Co  Co1       1.0  0.49999794860203656  0.999998910992936  0.9999999888150056  1.0000
  Co  Co2       1.0  0.5000022669531177  0.49999986266475105  0.499998818215218  1.0000
  Co  Co3       1.0  0.246804368887318  0.7505682683939342  0.7504301114705854  1.0000
  Co  Co4       1.0  0.7531913274981221  0.24942614758000312  0.24956705001188342  1.0000
  H   H1        1.0  0.557112960586764  0.945196054251447  0.8367430513785976  1.0000
  H   H2        1.0  0.6621396685415634  0.6628077243037823  0.8496343652316227  1.0000
  H   H3        1.0  0.4419946957435954  0.6609569025743627  0.8432911627094626  1.0000
  H   H4        1.0  0.5733189563229714  0.04673884692188321  0.7227301772181818  1.0000
  H   H5        1.0  0.21400203262117404  0.5784031563100741  0.868015918660312  1.0000
  H   H6        1.0  0.4763950616842578  0.3718103187476487  0.8658707361302831  1.0000
  H   H7        1.0  0.19238767175746577  0.3645758837995317  0.8721400229371669  1.0000
  H   H8        1.0  0.47370815789329157  0.2579911477773252  0.9740838633689748  1.0000
  H   H9        1.0  0.23756445844416169  0.30740373912031776  0.6285738841676719  1.0000
  H   H10       1.0  0.828135457897936  0.8336506666021394  0.8671650430119656  1.0000
  H   H11       1.0  0.25413091308319474  0.5243040025926788  0.6350645040109981  1.0000
  H   H12       1.0  0.0502677676338976  0.8285576649752997  0.8625925528634895  1.0000
  H   H13       1.0  0.7227631371957132  0.9999289561512087  0.9784145070325962  1.0000
  H   H14       1.0  0.6977290079489507  0.8707461217241885  0.9984090533506207  1.0000
  H   H15       1.0  0.5552727199327449  0.5553919082196045  0.663785951064348  1.0000
  H   H16       1.0  0.6614228373961595  0.8376737864548289  0.650576465011504  1.0000
  H   H17       1.0  0.44133290285983406  0.8400050951990324  0.6568278463675696  1.0000
  H   H18       1.0  0.5714816848837644  0.4539919938067527  0.7779623662660385  1.0000
  H   H19       1.0  0.21928253912049206  0.919948527929023  0.6315799310124247  1.0000
  H   H20       1.0  0.47850258473287255  0.12813416804741004  0.6341523721062289  1.0000
  H   H21       1.0  0.19438397284432096  0.13324525182193978  0.6275379970713786  1.0000
  H   H22       1.0  0.47608744092157446  0.24182163910594312  0.5258330237486603  1.0000
  H   H23       1.0  0.23855923227306874  0.19103466641367106  0.8713138884187615  1.0000
  H   H24       1.0  0.827594755553797  0.6666144039431929  0.6333976140940507  1.0000
  H   H25       1.0  0.2593127871831982  0.9747005377611588  0.8650046899418625  1.0000
  H   H26       1.0  0.04997235908422941  0.6718361925564907  0.6383376077604553  1.0000
  H   H27       1.0  0.7219109617631999  0.49817956455107293  0.5230246007853978  1.0000
  H   H28       1.0  0.6988258288781566  0.6266204997221864  0.5009722838401274  1.0000
  H   H29       1.0  0.4428862695801143  0.054808992297388705  0.1632556102185845  1.0000
  H   H30       1.0  0.33785338023074735  0.33720179738299555  0.15036805164374561  1.0000
  H   H31       1.0  0.5579992250052541  0.33904810651915085  0.1567046857719703  1.0000
  H   H32       1.0  0.4266847000519505  0.9532680157652537  0.2772720144433407  1.0000
  H   H33       1.0  0.7859998599897436  0.4215895418246235  0.1319850242625193  1.0000
  H   H34       1.0  0.5236024112149026  0.6281956837911835  0.1341330578001205  1.0000
  H   H35       1.0  0.8076186300849885  0.6354149722661832  0.12785571185997924  1.0000
  H   H36       1.0  0.5262840054639497  0.7420068338671515  0.02591529232603312  1.0000
  H   H37       1.0  0.7624436149914899  0.6925906888867178  0.3714244109268421  1.0000
  H   H38       1.0  0.1718611345066847  0.16635181051796621  0.1328395618886233  1.0000
  H   H39       1.0  0.7458798231086945  0.4756896095006057  0.3649387711106087  1.0000
  H   H40       1.0  0.9497297283712812  0.1714263138017955  0.1374171567746032  1.0000
  H   H41       1.0  0.2772334531921246  6.375130497820002e-05  0.0215869933208523  1.0000
  H   H42       1.0  0.30226139220920345  0.1292483425519251  0.0015914743511161004  1.0000
  H   H43       1.0  0.4447309274187532  0.44460868708816303  0.336210639085472  1.0000
  H   H44       1.0  0.3385737469909742  0.1623357342150413  0.34942595474861093  1.0000
  H   H45       1.0  0.5586619017927248  0.15999991364025593  0.3431680028350499  1.0000
  H   H46       1.0  0.4285148940130058  0.5460157172498158  0.2220370887933854  1.0000
  H   H47       1.0  0.7807211209807152  0.08004948939119322  0.3684220428466247  1.0000
  H   H48       1.0  0.5215028411540388  0.8718709312948006  0.3658502268433494  1.0000
  H   H49       1.0  0.8056232171286337  0.8667518401843779  0.3724610929277432  1.0000
  H   H50       1.0  0.5239206374990103  0.7581763691470016  0.47416839195858523  1.0000
  H   H51       1.0  0.7614417689220756  0.8089633048924014  0.1286847127303616  1.0000
  H   H52       1.0  0.17239653001941949  0.33339160037522225  0.3666061747880605  1.0000
  H   H53       1.0  0.7406855658982963  0.025297457695998605  0.1349955943168908  1.0000
  H   H54       1.0  0.9500180586202517  0.3281557249166199  0.3616705506814313  1.0000
  H   H55       1.0  0.278097971399788  0.5018280104119982  0.47696531448922036  1.0000
  H   H56       1.0  0.30116809231171254  0.37338717311638453  0.49902436026709296  1.0000
  C   C1        1.0  0.5406598584297909  0.039705719084722105  0.8401527792803946  1.0000
  C   C2        1.0  0.6163747197686718  0.7018542094337408  0.805422232456614  1.0000
  C   C3        1.0  0.5244966138310048  0.21897814985170072  0.783555873454084  1.0000
  C   C4        1.0  0.21492880255629393  0.3136608061404332  0.7501735413188086  1.0000
  C   C5        1.0  0.49370501740531847  0.7013531215552079  0.8024173846238725  1.0000
  C   C6        1.0  0.5482800572060286  0.09719028199990731  0.7769594858615605  1.0000
  C   C7        1.0  0.21749779302704303  0.5151427363169746  0.8160008459034103  1.0000
  C   C8        1.0  0.49690443350242214  0.27755707503154536  0.8562419827088449  1.0000
  C   C9        1.0  0.2067774247160372  0.3942446230964479  0.8175326298565935  1.0000
  C   C10       1.0  0.4921703124418286  0.2139237510253267  0.9168999889891223  1.0000
  C   C11       1.0  0.22989630516268283  0.36319767522476815  0.6833017035225096  1.0000
  C   C12       1.0  0.8741882144551951  0.7954265665443078  0.8156285749722302  1.0000
  C   C13       1.0  0.24015906951967742  0.48473868596357056  0.6861604123019872  1.0000
  C   C14       1.0  0.996969779731643  0.7944245539174306  0.8131637007563981  1.0000
  C   C15       1.0  0.5396641574537995  0.46075453945083933  0.6602973046287133  1.0000
  C   C16       1.0  0.6159877246561862  0.7989442346500226  0.6948901514158479  1.0000
  C   C17       1.0  0.5245309664330478  0.2814091386431912  0.7168238657505412  1.0000
  C   C18       1.0  0.21586041742164497  0.18439371266639176  0.7496204095825973  1.0000
  C   C19       1.0  0.49329042723966404  0.7997569959360434  0.6978647159362765  1.0000
  C   C20       1.0  0.5472330449517315  0.4033592911588928  0.7235634197344822  1.0000
  C   C21       1.0  0.22150692352460774  0.9829917369096252  0.6837405943265152  1.0000
  C   C22       1.0  0.49816589492022706  0.2225417580420412  0.6439171601870655  1.0000
  C   C23       1.0  0.2089774580899615  0.10372096538500135  0.682219522240274  1.0000
  C   C24       1.0  0.4934589581640481  0.2860663922711454  0.5831883394473608  1.0000
  C   C25       1.0  0.23159889300255543  0.13505675519284924  0.8165856167130485  1.0000
  C   C26       1.0  0.8738654994305861  0.7050862231308842  0.684957255135373  1.0000
  C   C27       1.0  0.24401884712629848  0.013721083953384998  0.8137837079819262  1.0000
  C   C28       1.0  0.9966640575778811  0.7060769619866037  0.6875671315673911  1.0000
  C   C29       1.0  0.45933937729184754  0.9602967026997437  0.1598478954796434  1.0000
  C   C30       1.0  0.38361567388334816  0.2981588386886643  0.1945793705638224  1.0000
  C   C31       1.0  0.47550616154394726  0.7810269580493242  0.21644728508967156  1.0000
  C   C32       1.0  0.7850775019966746  0.6863415980179469  0.2498260156952554  1.0000
  C   C33       1.0  0.5062853713261788  0.2986519119436224  0.1975801462460112  1.0000
  C   C34       1.0  0.45172183357149015  0.902813047726596  0.22304295429124468  1.0000
  C   C35       1.0  0.7825093989032155  0.4848517075365636  0.1839985719853772  1.0000
  C   C36       1.0  0.5030912718420382  0.7224480426994334  0.1437617318231617  1.0000
  C   C37       1.0  0.7932271180897176  0.6057533861734044  0.1824687829659126  1.0000
  C   C38       1.0  0.5078236222558844  0.7860786878767742  0.0831018049592629  1.0000
  C   C39       1.0  0.7701144136067698  0.6368064671105458  0.3166957659786007  1.0000
  C   C40       1.0  0.1258048457437653  0.20457238591975369  0.1843768387349982  1.0000
  C   C41       1.0  0.759851654110804  0.5152610531786266  0.3138383526922013  1.0000
  C   C42       1.0  0.0030259409540605003  0.2055646982852721  0.18684366638679964  1.0000
  C   C43       1.0  0.46033949128516133  0.5392496127144284  0.3397007208606482  1.0000
  C   C44       1.0  0.38400885228329434  0.2010661245593326  0.3051089757539103  1.0000
  C   C45       1.0  0.4754744472095851  0.7185967680539564  0.2831731935777739  1.0000
  C   C46       1.0  0.7841432416092146  0.8155954281023556  0.2503790994430588  1.0000
  C   C47       1.0  0.5067079204753709  0.20024717334685255  0.3021344287414323  1.0000
  C   C48       1.0  0.4527706018299326  0.5966475091591549  0.2764342778652065  1.0000
  C   C49       1.0  0.7784931952831117  0.017000922752842502  0.31625753836529924  1.0000
  C   C50       1.0  0.5018395223842801  0.7774597376658436  0.3560806328766049  1.0000
  C   C51       1.0  0.7910297320118147  0.8962672578659794  0.3177776646831846  1.0000
  C   C52       1.0  0.506549113502608  0.7139342329500309  0.416810501339299  1.0000
  C   C53       1.0  0.7684047659639008  0.8649368199535632  0.18341484385043572  1.0000
  C   C54       1.0  0.1261302069247279  0.29491535333486496  0.3150461475725592  1.0000
  C   C55       1.0  0.7559786237560715  0.9862751489215354  0.1862169814013299  1.0000
  C   C56       1.0  0.0033298930904024  0.29391582419363976  0.3124399841997914  1.0000
  C   C57       1.0  0.8104666576796903  0.7503167440067245  0.7502458821781985  1.0000
  C   C58       1.0  0.6802951234808745  0.750395508554135  0.7501865153670053  1.0000
  C   C59       1.0  0.18952816205647594  0.2496901368149551  0.2497574257869388  1.0000
  C   C60       1.0  0.31969791632749883  0.2496201635699578  0.2498130766541351  1.0000
  S   S1        1.0  0.301211690531865  0.8000594366233855  0.9420130110011656  1.0000
  S   S2        1.0  0.302006944598034  0.7002277611637381  0.558179564564675  1.0000
  S   S3        1.0  0.698786665453369  0.19993680379344173  0.0579882408610075  1.0000
  S   S4        1.0  0.697996699597013  0.2997754745006702  0.4418161359377422  1.0000
  N   N1        1.0  0.2354408457412873  0.5609958953916135  0.7513600129468969  1.0000
  N   N2        1.0  0.5121659932217142  0.09638671282092301  0.9094802018632819  1.0000
  N   N3        1.0  0.240514559463243  0.9374950090310039  0.7484826107594031  1.0000
  N   N4        1.0  0.5122535924249121  0.4037975804578622  0.5907790453130985  1.0000
  N   N5        1.0  0.7645654580584705  0.4389923125213216  0.2486360497399218  1.0000
  N   N6        1.0  0.4878288164801817  0.9036174418866096  0.09051781641423423  1.0000
  N   N7        1.0  0.759478489943305  0.06250387326782912  0.2515177471282612  1.0000
  N   N8        1.0  0.48775271673638804  0.5962013058237049  0.4092218851500675  1.0000
  N   N9        1.0  0.43239493284641384  0.7507784820502648  0.7502058260413308  1.0000
  N   N10       1.0  0.057755474056513406  0.7502404966674449  0.7503920209113772  1.0000
  N   N11       1.0  0.567598990112444  0.24922299357415773  0.249790272373744  1.0000
  N   N12       1.0  0.9422367093741927  0.249746085010969  0.24961398596356332  1.0000
  O   O1        1.0  0.6734287869417912  0.9244179468351702  0.9636501077681672  1.0000
  O   O2        1.0  0.41284975889748676  0.8691923802983796  0.9298255248035971  1.0000
  O   O3        1.0  0.23950062017676285  0.7735905560135096  0.8661262608787935  1.0000
  O   O4        1.0  0.33066274739196194  0.688284694188866  0.9686089566360181  1.0000
  O   O5        1.0  0.2215473564146464  0.87723871996689  0.9941808247206794  1.0000
  O   O6        1.0  0.6737036594090426  0.574851185952774  0.5366157455554587  1.0000
  O   O7        1.0  0.41443707253021234  0.6314235676576203  0.5695734441185607  1.0000
  O   O8        1.0  0.23843585890627852  0.7172410968180359  0.63337575010042  1.0000
  O   O9        1.0  0.3306779005676717  0.8154809487436127  0.5361389782841144  1.0000
  O   O10       1.0  0.22522135000372154  0.626265933334814  0.5021125246305189  1.0000
  O   O11       1.0  0.3265686858334718  0.07558007226462851  0.0363518610425899  1.0000
  O   O12       1.0  0.5871415285735395  0.13079855805056442  0.0701758153106979  1.0000
  O   O13       1.0  0.7605012776717998  0.2264048370507865  0.1338777247007386  1.0000
  O   O14       1.0  0.6693303053593455  0.31171509681468024  0.03139316448086051  1.0000
  O   O15       1.0  0.7784518825922576  0.12275219270559752  0.0058188366110912045  1.0000
  O   O16       1.0  0.3263044041162289  0.4251484993791339  0.4633790849710735  1.0000
  O   O17       1.0  0.585564806508451  0.36857879879120503  0.4304233005009266  1.0000
  O   O18       1.0  0.761555406033473  0.2827488080879945  0.36661483866100747  1.0000
  O   O19       1.0  0.6693319491289741  0.18452595114462877  0.463866027214344  1.0000
  O   O20       1.0  0.7747911064654006  0.3737468823439585  0.49787280544539675  1.0000
