data_image0
_chemical_formula_structural       Mn2H12C12N16O8
_chemical_formula_sum              "Mn2 H12 C12 N16 O8"
_cell_length_a       4.953185432057456
_cell_length_b       7.779952600614168
_cell_length_c       13.524875718000645
_cell_angle_alpha    90.00003523195389
_cell_angle_beta     89.99999241242908
_cell_angle_gamma    104.62221185666249

_space_group_name_H-M_alt    "P 1"
_space_group_IT_number       1

loop_
  _space_group_symop_operation_xyz
  'x, y, z'

loop_
  _atom_site_type_symbol
  _atom_site_label
  _atom_site_symmetry_multiplicity
  _atom_site_fract_x
  _atom_site_fract_y
  _atom_site_fract_z
  _atom_site_occupancy
  Mn  Mn1       1.0  0.9999982360843872  9.392357824997487e-07  0.9999999761182892  1.0000
  Mn  Mn2       1.0  0.4999991849753727  0.5000004467438898  0.4999994951525721  1.0000
  H   H1        1.0  0.27369762363061767  0.8214272127814722  0.8094574840439606  1.0000
  H   H2        1.0  0.22630370062714883  0.6785729778286507  0.3094573016837571  1.0000
  H   H3        1.0  0.7263027635451634  0.17857367650154288  0.19054372439612166  1.0000
  H   H4        1.0  0.773698170663195  0.3214265788746077  0.6905416886210745  1.0000
  H   H5        1.0  0.46018220310833846  0.8849426007462282  0.6226757374739549  1.0000
  H   H6        1.0  0.0398176254589019  0.6150587203313551  0.1226755416203815  1.0000
  H   H7        1.0  0.5398161668424493  0.11505829274235421  0.37732473158785507  1.0000
  H   H8        1.0  0.9601847789418088  0.38494216474489207  0.8773241880629998  1.0000
  H   H9        1.0  0.30898266342865094  0.03183934872378559  0.5532782801232301  1.0000
  H   H10       1.0  0.1910200261882622  0.468159818886285  0.0532774622026793  1.0000
  H   H11       1.0  0.6910197409720522  0.9681615363524612  0.44672144956015103  1.0000
  H   H12       1.0  0.8089818451020817  0.5318397378169734  0.9467215281021524  1.0000
  C   C1        1.0  0.1354702165367456  0.8978961758770082  0.7815644533914181  1.0000
  C   C2        1.0  0.36453110599233435  0.6021039845508582  0.281564237459591  1.0000
  C   C3        1.0  0.8645246520744151  0.10210605439569059  0.21843527629238224  1.0000
  C   C4        1.0  0.6354707652980095  0.39789557215240023  0.7184347528452406  1.0000
  C   C5        1.0  0.2633620671799122  0.9124239194388294  0.6000618608468216  1.0000
  C   C6        1.0  0.23664126132544538  0.5875760403848033  0.1000623852781573  1.0000
  C   C7        1.0  0.7366383199958192  0.0875769698433828  0.3999378688366093  1.0000
  C   C8        1.0  0.7633606099649269  0.41242351631885293  0.8999373444050036  1.0000
  C   C9        1.0  0.08997022036884768  0.7560737995513023  0.5391296693744323  1.0000
  C   C10       1.0  0.41002906991023724  0.7439261027509402  0.0391295012877677  1.0000
  C   C11       1.0  0.9100296336965454  0.24392576135832655  0.46087006030877836  1.0000
  C   C12       1.0  0.5899687669301911  0.2560734623646468  0.9608702283954927  1.0000
  N   N1        1.0  0.9555260968986372  0.959404668059477  0.8351612402997759  1.0000
  N   N2        1.0  0.5444734650365176  0.5405964895997001  0.33516101796224274  1.0000
  N   N3        1.0  0.04447630750204468  0.04059621701637178  0.164837750005276  1.0000
  N   N4        1.0  0.45552638902888265  0.45940307130992136  0.664838711720968  1.0000
  N   N5        1.0  0.11967039593753266  0.9511908616240772  0.6876737667584293  1.0000
  N   N6        1.0  0.3803289035476283  0.5488092014129649  0.1876727918974979  1.0000
  N   N7        1.0  0.8803294581278889  0.04880869928594219  0.31232670230311044  1.0000
  N   N8        1.0  0.6196729677427157  0.4511903552902935  0.8123261984073338  1.0000
  N   N9        1.0  0.9269275259274393  0.047182835016741406  0.6831049693741422  1.0000
  N   N10       1.0  0.5730728747096023  0.4528160839382238  0.1831041516757139  1.0000
  N   N11       1.0  0.07307232813798233  0.9528167258932851  0.3168954996873978  1.0000
  N   N12       1.0  0.42692697935579804  0.5471834769714049  0.8168955780074966  1.0000
  N   N13       1.0  0.8296729960552796  0.051269084578919384  0.7723013558188188  1.0000
  N   N14       1.0  0.6703253928848125  0.4487299350992159  0.272301271412374  1.0000
  N   N15       1.0  0.17032685801014938  0.9487304763311071  0.22769911324272132  1.0000
  N   N16       1.0  0.32967446118058763  0.5512696258104058  0.7276984582708295  1.0000
  O   O1        1.0  0.2275236179361215  0.6747761820924936  0.4860445059101153  1.0000
  O   O2        1.0  0.2724757000407578  0.8252242038034651  0.9860446896677431  1.0000
  O   O3        1.0  0.7724767692396313  0.32522470719012375  0.5139559631516377  1.0000
  O   O4        1.0  0.727524687135002  0.17477668547914493  0.013955779394017  1.0000
  O   O5        1.0  0.8272753387211366  0.7276662986418286  0.5440169375073722  1.0000
  O   O6        1.0  0.6727256892848529  0.7723332114004647  0.044017530152380906  1.0000
  O   O7        1.0  0.17272451534426378  0.2723332622677929  0.45598279217583837  1.0000
  O   O8        1.0  0.3272761820055408  0.2276663453035894  0.9559829389091024  1.0000
