data_image0
_chemical_formula_structural       Co2H14C16N2O10
_chemical_formula_sum              "Co2 H14 C16 N2 O10"
_cell_length_a       7.707717167946151
_cell_length_b       8.841045608553477
_cell_length_c       7.818342403299216
_cell_angle_alpha    92.84391509122578
_cell_angle_beta     82.83347833355312
_cell_angle_gamma    62.343998111948935

_space_group_name_H-M_alt    "P 1"
_space_group_IT_number       1

loop_
  _space_group_symop_operation_xyz
  'x, y, z'

loop_
  _atom_site_type_symbol
  _atom_site_label
  _atom_site_symmetry_multiplicity
  _atom_site_fract_x
  _atom_site_fract_y
  _atom_site_fract_z
  _atom_site_occupancy
  Co  Co1       1.0  0.020573020038824556  0.35633289059831  0.7351906672621096  1.0000
  Co  Co2       1.0  0.9794522051828024  0.643665520611293  0.2647857656239622  1.0000
  H   H1        1.0  0.12602840002934096  0.0609183404068219  0.10913624440229336  1.0000
  H   H2        1.0  0.8739497345926852  0.9390616191270312  0.8908682021453199  1.0000
  H   H3        1.0  0.49724538809461183  0.5665846606401742  0.8050181238756051  1.0000
  H   H4        1.0  0.5027365681477319  0.4333995023853702  0.19499838220818327  1.0000
  H   H5        1.0  0.5440704734433766  0.009596303339314691  0.6580287108726208  1.0000
  H   H6        1.0  0.45594740043201654  0.9903738224892181  0.34198292717402257  1.0000
  H   H7        1.0  0.18400651095864623  0.29322188939392646  0.026972547549625893  1.0000
  H   H8        1.0  0.8159892871827238  0.706760787978979  0.9729953450064385  1.0000
  H   H9        1.0  0.3541183040340599  0.27232477334369076  0.8623752260101794  1.0000
  H   H10       1.0  0.6458629196734264  0.7276636114156503  0.13759644444504449  1.0000
  H   H11       1.0  0.12395600980774907  0.5857274934872122  0.8404113503166993  1.0000
  H   H12       1.0  0.8761080042618657  0.4142222951958061  0.1596026908014636  1.0000
  H   H13       1.0  0.10096127679894104  0.5772194391849651  0.6326887242218218  1.0000
  H   H14       1.0  0.8990563271216844  0.4227352617068546  0.3673424971223298  1.0000
  C   C1        1.0  0.3224050672457394  0.0573878235184324  0.8826475153026222  1.0000
  C   C2        1.0  0.6775855207478613  0.9426321697251012  0.11730776209921602  1.0000
  C   C3        1.0  0.23980497530216383  0.9830297481135019  0.9978560325259733  1.0000
  C   C4        1.0  0.7601600342440377  0.0170227462053418  0.0021031891451102655  1.0000
  C   C5        1.0  0.3007575716831497  0.8066133618948754  0.9683731676661009  1.0000
  C   C6        1.0  0.6992925466705555  0.19342454889358857  0.031605743968221085  1.0000
  C   C7        1.0  0.44934508998627365  0.7034425528706478  0.8285125829613732  1.0000
  C   C8        1.0  0.5507085265673908  0.29653268749079587  0.17150025964118493  1.0000
  C   C9        1.0  0.5406195272157036  0.7765333665813685  0.7205200311621736  1.0000
  C   C10       1.0  0.45934470659945237  0.22351167777333103  0.2795215486471746  1.0000
  C   C11       1.0  0.4746568308411554  0.9538179499757575  0.7457804305715355  1.0000
  C   C12       1.0  0.525318749198817  0.04618688741600609  0.2542162965164606  1.0000
  C   C13       1.0  0.2001381078289271  0.7312736063604603  0.08198493596314897  1.0000
  C   C14       1.0  0.7998720994486844  0.268756976158997  0.9179691932357911  1.0000
  C   C15       1.0  0.709243138451548  0.6658962293249573  0.5784077001320965  1.0000
  C   C16       1.0  0.29070162683729717  0.3342018144266206  0.42165044124931217  1.0000
  N   N1        1.0  0.2463389459271426  0.2389047158978528  0.9009876853557939  1.0000
  N   N2        1.0  0.7537590766889721  0.7609980317429005  0.0990404220436928  1.0000
  O   O1        1.0  0.10560601792472117  0.8049716086081274  0.23297206925027317  1.0000
  O   O2        1.0  0.8943694745164023  0.1949429549556356  0.7670033377265424  1.0000
  O   O3        1.0  0.20067735081383384  0.5913336646761138  0.02437791463058398  1.0000
  O   O4        1.0  0.7992078670746849  0.40871140041871706  0.9757137011067835  1.0000
  O   O5        1.0  0.7855324367997338  0.5016557564666825  0.5697422015730282  1.0000
  O   O6        1.0  0.21449108326154953  0.4983938815769021  0.43019891888537376  1.0000
  O   O7        1.0  0.7679849002736674  0.7439015117113001  0.4716408151946395  1.0000
  O   O8        1.0  0.2320451678488452  0.2560320190001519  0.5283501146394655  1.0000
  O   O9        1.0  0.03688826240036065  0.5834373374451826  0.7559805893036182  1.0000
  O   O10       1.0  0.963100548491532  0.41663723034854877  0.24403807042684617  1.0000
