data_image0
_chemical_formula_structural       Cd2H40C36N12O8
_chemical_formula_sum              "Cd2 H40 C36 N12 O8"
_cell_length_a       9.689455480482662
_cell_length_b       9.946314070005485
_cell_length_c       11.303276513580578
_cell_angle_alpha    66.37865411132614
_cell_angle_beta     88.64889115410783
_cell_angle_gamma    70.00665955479649

_space_group_name_H-M_alt    "P 1"
_space_group_IT_number       1

loop_
  _space_group_symop_operation_xyz
  'x, y, z'

loop_
  _atom_site_type_symbol
  _atom_site_label
  _atom_site_symmetry_multiplicity
  _atom_site_fract_x
  _atom_site_fract_y
  _atom_site_fract_z
  _atom_site_occupancy
  Cd  Cd1       1.0  0.13737311074223157  0.3373519406833907  0.6538155584660643  1.0000
  Cd  Cd2       1.0  0.8626277655598642  0.6626481736509079  0.3461828465275048  1.0000
  H   H1        1.0  0.49382015325144835  0.10624257434862021  0.04094696007754811  1.0000
  H   H2        1.0  0.5061815459376219  0.8937551934838981  0.959054031522122  1.0000
  H   H3        1.0  0.445330351936036  0.314089107739278  0.9888851816441859  1.0000
  H   H4        1.0  0.5546674579236565  0.6859110142255603  0.011117723065964797  1.0000
  H   H5        1.0  0.3718251269112612  0.9675379172696026  0.2039641920037809  1.0000
  H   H6        1.0  0.6281732673249607  0.032457480618070605  0.7960386159626722  1.0000
  H   H7        1.0  0.1854597108355803  0.9636490749699647  0.35931475202494323  1.0000
  H   H8        1.0  0.8145345750621826  0.036352188412728  0.640683411870107  1.0000
  H   H9        1.0  0.994194303637222  0.46931002951644984  0.17330540962740318  1.0000
  H   H10       1.0  0.005806800936191852  0.5306924536235441  0.8266939126651567  1.0000
  H   H11       1.0  0.18388570313432234  0.47247224928652554  0.021368844142770613  1.0000
  H   H12       1.0  0.8161190932145103  0.5275255372244985  0.9786329458927414  1.0000
  H   H13       1.0  0.9448283600278627  0.1059362425925841  0.4084130188448683  1.0000
  H   H14       1.0  0.055168611586175496  0.8940662127195085  0.5915846501829733  1.0000
  H   H15       1.0  0.8604983927563339  0.31659080979190435  0.3235669451983014  1.0000
  H   H16       1.0  0.13949795962112418  0.6834104675047429  0.6764320453291076  1.0000
  H   H17       1.0  0.7824843403432168  0.32137291903494974  0.6540842967909273  1.0000
  H   H18       1.0  0.2175140785139291  0.6786283721756521  0.3459155203688411  1.0000
  H   H19       1.0  0.06380441115764057  0.19904704036215293  0.9885449178175353  1.0000
  H   H20       1.0  0.9361938245273503  0.800957792905031  0.011454523338180422  1.0000
  H   H21       1.0  0.907684858844753  0.07052984111380313  0.1601929211988775  1.0000
  H   H22       1.0  0.09231539822076226  0.9294690952050504  0.8398068052942663  1.0000
  H   H23       1.0  0.7485615370571138  0.058185326601524416  0.09711759626723901  1.0000
  H   H24       1.0  0.2514383136844741  0.9418147873530602  0.9028817199482547  1.0000
  H   H25       1.0  0.6200831182859543  0.3560527301085727  0.03720153851347164  1.0000
  H   H26       1.0  0.3799198296153887  0.6439474025245177  0.9627985761378642  1.0000
  H   H27       1.0  0.7733359800219188  0.3436259222542121  0.12787269663423467  1.0000
  H   H28       1.0  0.22666491163885635  0.6563742052346059  0.8721283574355497  1.0000
  H   H29       1.0  0.5699322457483404  0.15603889523438852  0.24046742530256895  1.0000
  H   H30       1.0  0.4300678281450131  0.8439635831410542  0.759531925186515  1.0000
  H   H31       1.0  0.7226239635223094  0.1463815361953991  0.3294832415319746  1.0000
  H   H32       1.0  0.27737611549060387  0.8536209465648811  0.6705169919825097  1.0000
  H   H33       1.0  0.601160694584827  0.44933403859247534  0.25050648786974955  1.0000
  H   H34       1.0  0.3988393741889664  0.5506684353981229  0.7494919795939268  1.0000
  H   H35       1.0  0.4409810818530102  0.43745048014049115  0.18823674960990636  1.0000
  H   H36       1.0  0.5590187740081375  0.5625496381989308  0.8117634496309948  1.0000
  H   H37       1.0  0.2634669621569045  0.3529657316023886  0.35075115070991103  1.0000
  H   H38       1.0  0.736534330708238  0.6470332138658607  0.6492494306121089  1.0000
  H   H39       1.0  0.511052734770132  0.2914007563338004  0.6813855550517616  1.0000
  H   H40       1.0  0.48894774032758875  0.7086005400210668  0.3186133226895648  1.0000
  C   C1        1.0  0.3217495056403976  0.2543774979672763  0.8771072617919915  1.0000
  C   C2        1.0  0.6782507565446779  0.7456214427364144  0.12289334772655285  1.0000
  C   C3        1.0  0.4019538065407032  0.22041529900558032  0.005976566260116586  1.0000
  C   C4        1.0  0.5980468670878594  0.7795824684472236  0.9940253365614711  1.0000
  C   C5        1.0  0.2925629889516513  0.21975608664731547  0.10350101430012155  1.0000
  C   C6        1.0  0.7074380858812859  0.7802404987849132  0.8965004157737158  1.0000
  C   C7        1.0  0.2900463259492838  0.0775272720315456  0.19871987295581314  1.0000
  C   C8        1.0  0.7099522811995911  0.9224704815073039  0.8012812032334155  1.0000
  C   C9        1.0  0.18438147515962555  0.0757301120639937  0.28498290214383104  1.0000
  C   C10       1.0  0.8156146591856198  0.9242688051966327  0.7150169371353954  1.0000
  C   C11       1.0  0.07677832474220028  0.21673598861378457  0.276962723148408  1.0000
  C   C12       1.0  0.9232192763475309  0.7832676534834352  0.7230353904306667  1.0000
  C   C13       1.0  0.07872921408001328  0.3593637324801691  0.1812407637334488  1.0000
  C   C14       1.0  0.9212727031412694  0.6406363953883699  0.8187593791144111  1.0000
  C   C15       1.0  0.1854792254335038  0.3607547718021706  0.09639547412623982  1.0000
  C   C16       1.0  0.8145241339113268  0.6392441875800331  0.9036059338281464  1.0000
  C   C17       1.0  0.9643303060475785  0.21714008830113585  0.3717581578295253  1.0000
  C   C18       1.0  0.03566707700994689  0.782861193760063  0.6282408045013596  1.0000
  C   C19       1.0  0.021902251651979975  0.23895425021574118  0.4843193312814052  1.0000
  C   C20       1.0  0.9780951314055455  0.7610470318454575  0.51567963104948  1.0000
  C   C21       1.0  0.8254058565006869  0.28356119672804436  0.7547239594956565  1.0000
  C   C22       1.0  0.17459256235646572  0.7164400944825503  0.24527585766411167  1.0000
  C   C23       1.0  0.9711401649018396  0.22182227298498702  0.9219061696530633  1.0000
  C   C24       1.0  0.028855999183896468  0.7781825419834123  0.07809156184488594  1.0000
  C   C25       1.0  0.8052038054565499  0.13871331941177806  0.09134321847302829  1.0000
  C   C26       1.0  0.19479605040459785  0.8612867989276439  0.9086569807678658  1.0000
  C   C27       1.0  0.7074513709152866  0.27580482473437945  0.12054287159040913  1.0000
  C   C28       1.0  0.29254952074548146  0.7241953027544455  0.8794581824793684  1.0000
  C   C29       1.0  0.6367112804247128  0.22408460751109527  0.24528314096397713  1.0000
  C   C30       1.0  0.36328920491212807  0.7759166976134609  0.7547175028281501  1.0000
  C   C31       1.0  0.5396349636253817  0.3710956807950225  0.26188321068097054  1.0000
  C   C32       1.0  0.460365110267972  0.6289067975804202  0.7381161398081134  1.0000
  C   C33       1.0  0.3508748166282842  0.3385575545296646  0.4182772569043608  1.0000
  C   C34       1.0  0.6491279132408536  0.6614402180674048  0.581723706498785  1.0000
  C   C35       1.0  0.47983473009421823  0.3065552762080089  0.584041629824199  1.0000
  C   C36       1.0  0.5201657501230625  0.6934460245316958  0.41595813094252787  1.0000
  N   N1        1.0  0.9609446190203599  0.2782449968809432  0.7918280703229642  1.0000
  N   N2        1.0  0.039054022988558736  0.7217586587505168  0.20817178111039422  1.0000
  N   N3        1.0  0.7515301823765695  0.2350569847358913  0.8539509689889971  1.0000
  N   N4        1.0  0.24847007980851288  0.7649419559677996  0.1460496405295472  1.0000
  N   N5        1.0  0.8468181198699654  0.19505826329525897  0.959915449597773  1.0000
  N   N6        1.0  0.1531837973513104  0.804941864573273  0.040084693250086935  1.0000
  N   N7        1.0  0.485689905872654  0.33967967816418826  0.38808501933192474  1.0000
  N   N8        1.0  0.5143124176725493  0.6603192720686197  0.6119155337935781  1.0000
  N   N9        1.0  0.5703376366180491  0.3185470461388817  0.49344508730860087  1.0000
  N   N10       1.0  0.42966387427930647  0.6814542593653811  0.5065546452616091  1.0000
  N   N11       1.0  0.3435303875709437  0.31821701509095135  0.5422474679707038  1.0000
  N   N12       1.0  0.6564715245307724  0.6817831083927431  0.45775179185174847  1.0000
  O   O1        1.0  0.25241359268672875  0.398884875101878  0.7992843444998246  1.0000
  O   O2        1.0  0.7475843952255657  0.6011117004215267  0.20071805318897878  1.0000
  O   O3        1.0  0.31995954725340425  0.14054581248083764  0.8533925927647062  1.0000
  O   O4        1.0  0.6800460515041705  0.8594496099890422  0.14660825177529094  1.0000
  O   O5        1.0  0.0002949974102718959  0.3821952879929853  0.4665785220070903  1.0000
  O   O6        1.0  0.9997034112077613  0.6178059944479344  0.5334195291018773  1.0000
  O   O7        1.0  0.09253347196338517  0.12279714495439722  0.5872686083827079  1.0000
  O   O8        1.0  0.907463088207166  0.8772064836085819  0.41272776734208344  1.0000
