data_image0
_chemical_formula_structural       Al8H32C56N8O40
_chemical_formula_sum              "Al8 H32 C56 N8 O40"
_cell_length_a       10.449735484469866
_cell_length_b       16.068747444184584
_cell_length_c       16.221154451909843
_cell_angle_alpha    83.9967611757928
_cell_angle_beta     71.2098850776954
_cell_angle_gamma    71.05304255104471

_space_group_name_H-M_alt    "P 1"
_space_group_IT_number       1

loop_
  _space_group_symop_operation_xyz
  'x, y, z'

loop_
  _atom_site_type_symbol
  _atom_site_label
  _atom_site_symmetry_multiplicity
  _atom_site_fract_x
  _atom_site_fract_y
  _atom_site_fract_z
  _atom_site_occupancy
  Al  Al1       1.0  0.5001449981154099  0.18111663434929431  0.31846863908606327  1.0000
  Al  Al2       1.0  0.9997066115871859  0.3189094145893918  0.18151099445437063  1.0000
  Al  Al3       1.0  0.6813735334942379  0.31885525793972397  0.3184725461893407  1.0000
  Al  Al4       1.0  0.3187941235066989  0.18114046087032418  0.18152271576419565  1.0000
  Al  Al5       1.0  0.4998529750501818  0.8188841318350487  0.6815323037630705  1.0000
  Al  Al6       1.0  0.0002943774164805918  0.6810913720157147  0.8184899483947632  1.0000
  Al  Al7       1.0  0.31862429295553346  0.6811452940588937  0.6815270942920362  1.0000
  Al  Al8       1.0  0.6812082596035655  0.8188582451342726  0.8184775759010632  1.0000
  H   H1        1.0  0.8714004610063383  0.010764435256163517  0.18003345823274225  1.0000
  H   H2        1.0  0.062026080177993576  0.48924738689886743  0.3200633884059271  1.0000
  H   H3        1.0  0.12975834044090115  0.3190682750762477  0.4882687426590876  1.0000
  H   H4        1.0  0.44829847092417907  0.48922212361139134  0.18003215586498555  1.0000
  H   H5        1.0  0.8820474174989245  0.18077103012151235  0.4882635331880535  1.0000
  H   H6        1.0  0.5513005269650009  0.31915727139726596  0.0116939601004944  1.0000
  H   H7        1.0  0.11783524473991494  0.010874703999888912  0.3200659931414477  1.0000
  H   H8        1.0  0.93720915979376  0.18085956040908263  0.011692006548855697  1.0000
  H   H9        1.0  0.1286023912973776  0.9892355354443508  0.8199694381680303  1.0000
  H   H10       1.0  0.9379726649560283  0.5107519208231183  0.6799369032593316  1.0000
  H   H11       1.0  0.8702380659707315  0.6809326848742216  0.5117308978222894  1.0000
  H   H12       1.0  0.5517004240401134  0.510776347786411  0.8199674846163916  1.0000
  H   H13       1.0  0.11795526215743031  0.8192270537446262  0.5117374096610803  1.0000
  H   H14       1.0  0.4487025042149711  0.6808424851178217  0.9883069827486464  1.0000
  H   H15       1.0  0.8821612824560034  0.9891247974876478  0.679934298523811  1.0000
  H   H16       1.0  0.0627883410639356  0.8191409915892366  0.9883082851164031  1.0000
  H   H17       1.0  0.6344059072872454  0.9854289156228834  0.0153151936520501  1.0000
  H   H18       1.0  0.6350344456121277  0.514561951746046  0.4846976502662201  1.0000
  H   H19       1.0  0.3649608922849836  0.4854410888052244  0.515301990215157  1.0000
  H   H20       1.0  0.8500255199073407  0.5146276464435149  0.015410917682274297  1.0000
  H   H21       1.0  0.6195314349355955  0.014548789799420116  0.5154445994846739  1.0000
  H   H22       1.0  0.14997379238732111  0.48536874435290406  0.9845900251668667  1.0000
  H   H23       1.0  0.38047006165083996  0.9854507321106426  0.4845517850773077  1.0000
  H   H24       1.0  0.3655950786019773  0.014572921492131687  0.9846877027487222  1.0000
  H   H25       1.0  0.3509588755142802  0.2980520927797841  0.2500122826140441  1.0000
  H   H26       1.0  0.8990153373109637  0.20198797053254222  0.2500311669465418  1.0000
  H   H27       1.0  0.648465054723566  0.24998902712347612  0.2030287145546481  1.0000
  H   H28       1.0  0.1015261844882289  0.24997265573536964  0.29694115122760667  1.0000
  H   H29       1.0  0.6490387720592351  0.7019486734042601  0.7499893114189715  1.0000
  H   H30       1.0  0.10098216666117572  0.7980115309558754  0.7499671711670783  1.0000
  H   H31       1.0  0.3515289839196927  0.7500129629167135  0.7969715771106107  1.0000
  H   H32       1.0  0.8984728312603495  0.7500243571995071  0.703059140437652  1.0000
  C   C1        1.0  0.737414294646115  0.006279110399617642  0.104371752138718  1.0000
  C   C2        1.0  0.8479240328662955  0.4937342809453398  0.39566388321532026  1.0000
  C   C3        1.0  0.26293081291790105  0.3958863882816886  0.49300350064387277  1.0000
  C   C4        1.0  0.6580121649926697  0.49366222303345353  0.104365891483809  1.0000
  C   C5        1.0  0.7441131699068818  0.10399467759538081  0.4929930817018046  1.0000
  C   C6        1.0  0.34142542986680274  0.39594164021642103  0.006988505390275198  1.0000
  C   C7        1.0  0.25633793890055057  0.006378737258124502  0.3956840699155677  1.0000
  C   C8        1.0  0.1518182674860569  0.10411604205716432  0.0069409689671005  1.0000
  C   C9        1.0  0.2625918700417667  0.99372025858321  0.8956317954459363  1.0000
  C   C10       1.0  0.1520716015769067  0.5062681374674726  0.6043364084499387  1.0000
  C   C11       1.0  0.7370670685093902  0.6041164585043292  0.5069954886536292  1.0000
  C   C12       1.0  0.3419864074939982  0.5063351978541561  0.8956324466298111  1.0000
  C   C13       1.0  0.2558887958730127  0.8960061090105995  0.5070059075956974  1.0000
  C   C14       1.0  0.6585758297514133  0.6040568516015696  0.9930124374588657  1.0000
  C   C15       1.0  0.743665219292595  0.9936174597742212  0.6043136170141705  1.0000
  C   C16       1.0  0.8481805295110406  0.8958866109621442  0.9930606250659151  1.0000
  C   C17       1.0  0.8648049723329336  0.9792199950287569  0.1257318857402581  1.0000
  C   C18       1.0  0.9696282796469973  0.5208101277486675  0.3743688680016888  1.0000
  C   C19       1.0  0.13613743451518456  0.3737310696192822  0.5198277181747528  1.0000
  C   C20       1.0  0.5092455310172285  0.5207271437702089  0.1257175596949196  1.0000
  C   C21       1.0  0.8441311477283053  0.12610161867853267  0.5198062291067487  1.0000
  C   C22       1.0  0.4903588626793509  0.3738237876831861  0.9801281132274153  1.0000
  C   C23       1.0  0.1559171585260226  0.9793392498592228  0.3743818916792705  1.0000
  C   C24       1.0  0.029738508394416323  0.12621104051933682  0.9801046706077725  1.0000
  C   C25       1.0  0.13519930312335768  0.020778517209997495  0.8742690571088827  1.0000
  C   C26       1.0  0.030371318364522785  0.4791916889470472  0.6256307724796883  1.0000
  C   C27       1.0  0.8638594732503299  0.6262707266559532  0.4801712711227495  1.0000
  C   C28       1.0  0.4907585717917088  0.4792694816341695  0.8742814296025825  1.0000
  C   C29       1.0  0.15586398847545985  0.8738989128996055  0.4801927601907536  1.0000
  C   C30       1.0  0.5096423969388724  0.6261747041348046  0.0198728296217183  1.0000
  C   C31       1.0  0.8440819122000749  0.020660057863061406  0.6256177488021064  1.0000
  C   C32       1.0  0.9702613571172095  0.8737895318991633  0.0198969234252502  1.0000
  C   C33       1.0  0.61051909166261  0.0741887432469426  0.15776362075213504  1.0000
  C   C34       1.0  0.8424186667336714  0.42583642297989854  0.34217042991677  1.0000
  C   C35       1.0  0.3895657214946128  0.3428251736798345  0.424879899134062  1.0000
  C   C36       1.0  0.7315053270248983  0.42580214026000374  0.15781245954306655  1.0000
  C   C37       1.0  0.6855769453543131  0.1570907220217777  0.4248903180761231  1.0000
  C   C38       1.0  0.26780748886457667  0.34286768426486  0.07513815425524227  1.0000
  C   C39       1.0  0.31538602115342945  0.07422541387173001  0.342192570168656  1.0000
  C   C40       1.0  0.15720769556195785  0.15720656056481636  0.07510168795801767  1.0000
  C   C41       1.0  0.389480362747534  0.9258118087531315  0.8422327638098537  1.0000
  C   C42       1.0  0.15758587162238075  0.5741647919995856  0.6578266058290934  1.0000
  C   C43       1.0  0.6104334010945605  0.6571774793397652  0.5751210437150789  1.0000
  C   C44       1.0  0.26850566656658276  0.5741949339398147  0.8421819714672834  1.0000
  C   C45       1.0  0.3144253947662818  0.842914460391718  0.5751112759568926  1.0000
  C   C46       1.0  0.7321897123325845  0.6571345403818256  0.9248634397777733  1.0000
  C   C47       1.0  0.6846040985397226  0.925772547474786  0.6577973025545345  1.0000
  C   C48       1.0  0.8427958079259028  0.842793410136288  0.9248999060750049  1.0000
  C   C49       1.0  0.7306573473124301  0.9654275450708526  0.034736101661692886  1.0000
  C   C50       1.0  0.7307228392388584  0.5345752275658882  0.46528390527925  1.0000
  C   C51       1.0  0.2692755176107796  0.4654267828962448  0.5347137816504953  1.0000
  C   C52       1.0  0.7343626841828056  0.5345850210279579  0.0347732191427994  1.0000
  C   C53       1.0  0.6959745531224969  0.03450245589479554  0.5347417825572902  1.0000
  C   C54       1.0  0.265639200688021  0.4654117981419574  0.9652257701547027  1.0000
  C   C55       1.0  0.3040257909259195  0.9654962296899117  0.4652565555563299  1.0000
  C   C56       1.0  0.2693425472451737  0.03457364948639712  0.9652641900035659  1.0000
  N   N1        1.0  0.9809079068073603  0.9155100677736245  0.0835110765724352  1.0000
  N   N2        1.0  0.9798182975695794  0.5845494279090532  0.4165779558596866  1.0000
  N   N3        1.0  0.020179883518252985  0.4154517462285981  0.5834197310700588  1.0000
  N   N4        1.0  0.43539775594211255  0.5844898079162918  0.08351498367571247  1.0000
  N   N5        1.0  0.8964829050016122  0.08439647910358876  0.583406707392477  1.0000
  N   N6        1.0  0.5646027638681022  0.4155097139928899  0.9164833544379076  1.0000
  N   N7        1.0  0.10351480837866234  0.9156005338301156  0.41659618900830236  1.0000
  N   N8        1.0  0.019096043056862442  0.08448844446483862  0.9164905174605804  1.0000
  O   O1        1.0  0.5066129287512312  0.10696158156785882  0.1271234656898486  1.0000
  O   O2        1.0  0.7406365881318424  0.3930220192529817  0.3727923518304407  1.0000
  O   O3        1.0  0.4929446984216455  0.373960888291812  0.39221521339172216  1.0000
  O   O4        1.0  0.866079471671796  0.3930563369469057  0.12720030538758206  1.0000
  O   O5        1.0  0.6148255233629741  0.1259752306712372  0.3922210740466312  1.0000
  O   O6        1.0  0.13329367077248835  0.37395652435694876  0.10777158317139167  1.0000
  O   O7        1.0  0.38652490742644136  0.10703469038980273  0.3728307716793039  1.0000
  O   O8        1.0  0.25907284563523086  0.12609965905834034  0.1077429310807076  1.0000
  O   O9        1.0  0.49340240423516946  0.8930363902143342  0.8728807330786877  1.0000
  O   O10       1.0  0.25935730379559613  0.6069797566014828  0.6272066374670615  1.0000
  O   O11       1.0  0.5070542515201668  0.6260398778934047  0.6077837759057798  1.0000
  O   O12       1.0  0.1339193025082111  0.6069435929138365  0.87279868390992  1.0000
  O   O13       1.0  0.3851664731039791  0.874027789458971  0.6077792176186279  1.0000
  O   O14       1.0  0.8667080212784056  0.6260476075460562  0.8922293596777491  1.0000
  O   O15       1.0  0.6134783607217498  0.8929660962173573  0.6271656128826775  1.0000
  O   O16       1.0  0.7409291751221833  0.8739034223350546  0.8922554070329127  1.0000
  O   O17       1.0  0.615854317614776  0.09290291810777528  0.23086812775301263  1.0000
  O   O18       1.0  0.9396005549204675  0.40720194831238393  0.26906266699648995  1.0000
  O   O19       1.0  0.3843308707123042  0.26911977971526113  0.4059975201924145  1.0000
  O   O20       1.0  0.6530267914726267  0.4071080934258832  0.23091566417618734  1.0000
  O   O21       1.0  0.7097264953713349  0.2307840269363126  0.4060059855828442  1.0000
  O   O22       1.0  0.3466860551762708  0.2692153373165739  0.0940726279072095  1.0000
  O   O23       1.0  0.29137223258602063  0.0928534375817307  0.2690743883063149  1.0000
  O   O24       1.0  0.05938826009412426  0.23086586649833415  0.09401271899033498  1.0000
  O   O25       1.0  0.38415267550496435  0.9070943906920876  0.7691419316704324  1.0000
  O   O26       1.0  0.06039641553736161  0.59279714522242  0.7309395782204005  1.0000
  O   O27       1.0  0.6156684965598845  0.7308789058685647  0.5940027714728442  1.0000
  O   O28       1.0  0.346973973020603  0.5928874610475248  0.769082022753558  1.0000
  O   O29       1.0  0.2902725431943338  0.7692157091571235  0.5939969108179284  1.0000
  O   O30       1.0  0.653308899036794  0.7307864589568994  0.905930268493563  1.0000
  O   O31       1.0  0.7086229663100595  0.907144391255976  0.7309278569105826  1.0000
  O   O32       1.0  0.9406132852409499  0.7691380512189455  0.9059869214910419  1.0000
  O   O33       1.0  0.3828632504494253  0.23442428517669364  0.24997907223621493  1.0000
  O   O34       1.0  0.8671659755666494  0.2656158294342461  0.2500311669465418  1.0000
  O   O35       1.0  0.6170191649797871  0.24998918257247024  0.2659747530419025  1.0000
  O   O36       1.0  0.1329949566602977  0.24997390792884752  0.23399511274035226  1.0000
  O   O37       1.0  0.6171354915701527  0.7655760730552005  0.7500231729806826  1.0000
  O   O38       1.0  0.13283625771334362  0.7343837128945269  0.749969775902599  1.0000
  O   O39       1.0  0.3829828666068665  0.7500078507831773  0.7340255386233565  1.0000
  O   O40       1.0  0.8670047880670428  0.7500281229525855  0.7660058301087884  1.0000
