data_image0
_chemical_formula_structural       Cu2H46C46N4O12
_chemical_formula_sum              "Cu2 H46 C46 N4 O12"
_cell_length_a       7.855140427252993
_cell_length_b       11.447042319047037
_cell_length_c       13.46934225676267
_cell_angle_alpha    100.83536403742161
_cell_angle_beta     98.30873209354398
_cell_angle_gamma    105.51708427117234

_space_group_name_H-M_alt    "P 1"
_space_group_IT_number       1

loop_
  _space_group_symop_operation_xyz
  'x, y, z'

loop_
  _atom_site_type_symbol
  _atom_site_label
  _atom_site_symmetry_multiplicity
  _atom_site_fract_x
  _atom_site_fract_y
  _atom_site_fract_z
  _atom_site_occupancy
  Cu  Cu1       1.0  0.13986552804135505  0.5669241297197659  0.9727842783529894  1.0000
  Cu  Cu2       1.0  0.8601421245017772  0.4330763363013688  0.02721346619794221  1.0000
  H   H1        1.0  0.2508308754967317  0.8975113120585549  0.20038148342727172  1.0000
  H   H2        1.0  0.7491729397033423  0.10248630287285469  0.799623636328036  1.0000
  H   H3        1.0  0.6928721171490011  0.7449017681818547  0.2095217916102001  1.0000
  H   H4        1.0  0.3071237594290039  0.2551070835136713  0.7904763198793319  1.0000
  H   H5        1.0  0.7075428217856581  0.9351529676168936  0.3370066007111916  1.0000
  H   H6        1.0  0.2924655143837284  0.06485495857043592  0.66299316178592  1.0000
  H   H7        1.0  0.2699364785710969  0.091219989740928  0.3317727599172997  1.0000
  H   H8        1.0  0.7300725344562548  0.9087748135582812  0.6682353128079866  1.0000
  H   H9        1.0  0.8162919884873928  0.0708351622703631  0.4965505947754139  1.0000
  H   H10       1.0  0.18369853147072476  0.9291643632262276  0.5034440544225518  1.0000
  H   H11       1.0  0.7605220549565885  0.15097363692097326  0.3999632502401482  1.0000
  H   H12       1.0  0.23947835040888069  0.8490249606115157  0.6000328306486864  1.0000
  H   H13       1.0  0.9954898870725868  0.34674599414663726  0.5039326100220975  1.0000
  H   H14       1.0  0.00449803682185025  0.653253502441025  0.49606626829590533  1.0000
  H   H15       1.0  0.05452826221051046  0.2668595080817012  0.5975093955969015  1.0000
  H   H16       1.0  0.9454618391256628  0.733139070809507  0.4024872908373425  1.0000
  H   H17       1.0  0.7550748208081542  0.2349683086340519  0.6451330275854872  1.0000
  H   H18       1.0  0.24492263391738325  0.7650265144754727  0.35486886837173154  1.0000
  H   H19       1.0  0.8652552028623929  0.3940743634788504  0.6572186102220172  1.0000
  H   H20       1.0  0.13472845572051276  0.6059242004549219  0.34277901073270556  1.0000
  H   H21       1.0  0.5479415599840819  0.21971459384307224  0.4861055946083681  1.0000
  H   H22       1.0  0.45204946657462125  0.7802802319443741  0.5138942702448261  1.0000
  H   H23       1.0  0.552497098841421  0.35434636106298706  0.579571643896621  1.0000
  H   H24       1.0  0.44748681592420053  0.6456410072361932  0.4204241719063688  1.0000
  H   H25       1.0  0.3263259982001188  0.3175207807237114  0.4414674775582199  1.0000
  H   H26       1.0  0.6736777857737621  0.6824796727958926  0.5585314208298939  1.0000
  H   H27       1.0  0.7856311052596892  0.49829655691022606  0.3235522980419603  1.0000
  H   H28       1.0  0.21437967388068557  0.5016963909048258  0.6764541372235939  1.0000
  H   H29       1.0  0.5798709899936866  0.5400965313675813  0.1868375523944508  1.0000
  H   H30       1.0  0.4201577022231149  0.45990205790909755  0.8131668722271995  1.0000
  H   H31       1.0  0.12287489641541065  0.3572699193137723  0.3029625158568336  1.0000
  H   H32       1.0  0.8771304761208895  0.6427370930829851  0.6970331333108462  1.0000
  H   H33       1.0  0.5915557889627864  0.6608331709702925  0.9975934092987799  1.0000
  H   H34       1.0  0.40842941442322445  0.3391718989345662  0.0024098593090044833  1.0000
  H   H35       1.0  0.1924168744374483  0.7867661188127995  0.8466218373034238  1.0000
  H   H36       1.0  0.8075731097471959  0.21323807112222679  0.1533735274883128  1.0000
  H   H37       1.0  0.5316594327888209  0.9274161108555886  0.8270399852079962  1.0000
  H   H38       1.0  0.4683343980854174  0.07258806512793109  0.17295867418330596  1.0000
  H   H39       1.0  0.8392827265555238  0.8525573037674334  0.8463243109063185  1.0000
  H   H40       1.0  0.16071115013134113  0.14744405126324264  0.1536776042276742  1.0000
  H   H41       1.0  0.8689410089917613  0.7814883322059811  0.9504098445700535  1.0000
  H   H42       1.0  0.13104324941029685  0.21850276838071636  0.04958660950296689  1.0000
  H   H43       1.0  0.8708329131274438  0.9741078893023312  0.07456913581166448  1.0000
  H   H44       1.0  0.12916669351356086  0.0258859852488698  0.925435758104669  1.0000
  H   H45       1.0  0.8378042913735653  0.0470960504257079  0.9717394480633175  1.0000
  H   H46       1.0  0.1622042004667534  0.9529034349472808  0.02826637463124372  1.0000
  C   C1        1.0  0.9689782198454818  0.694111530835741  0.12211437619740195  1.0000
  C   C2        1.0  0.031030609931342178  0.30589455627483625  0.8778806735571294  1.0000
  C   C3        1.0  0.9716739268876959  0.8088656580022968  0.1973053511821234  1.0000
  C   C4        1.0  0.028330310580926676  0.19113290794333437  0.8026969899307801  1.0000
  C   C5        1.0  0.13371942640834078  0.9076945400459592  0.23164886285950095  1.0000
  C   C6        1.0  0.8662809388444258  0.09230400898930209  0.7683553734967107  1.0000
  C   C7        1.0  0.8194729805545506  0.8206402731017803  0.23597958461485297  1.0000
  C   C8        1.0  0.18052686715778776  0.17936296241610708  0.7640216603045005  1.0000
  C   C9        1.0  0.8277086381075801  0.9282118099106212  0.3079742891473032  1.0000
  C   C10       1.0  0.1722955389619756  0.0717895593524958  0.6920277618473989  1.0000
  C   C11       1.0  0.14479271771422478  0.014166481279843907  0.3041143553703165  1.0000
  C   C12       1.0  0.855212774026917  0.9858320462141849  0.6958947680560569  1.0000
  C   C13       1.0  0.9917379830011511  0.0248367056015439  0.3435215296606628  1.0000
  C   C14       1.0  0.008264023919878016  0.975165590175699  0.6564812304055534  1.0000
  C   C15       1.0  0.8687124291639988  0.1492196706228199  0.461327962314968  1.0000
  C   C16       1.0  0.1312904899864264  0.8507817326830531  0.5386680477723829  1.0000
  C   C17       1.0  0.9412494418891056  0.27195090152265067  0.5419322928396185  1.0000
  C   C18       1.0  0.05873888604082821  0.728049524035029  0.45806751386660943  1.0000
  C   C19       1.0  0.8006344769045554  0.30445460923919393  0.6005299811245592  1.0000
  C   C20       1.0  0.1993548439402061  0.6955392687149242  0.3994718113065545  1.0000
  C   C21       1.0  0.6343082153549059  0.31264619252762316  0.532373268715105  1.0000
  C   C22       1.0  0.3656824071683006  0.687347704289799  0.4676256677498642  1.0000
  C   C23       1.0  0.5706422070784997  0.4068540166249547  0.3918232631006831  1.0000
  C   C24       1.0  0.4293595384848317  0.5931417700003152  0.6081747003769493  1.0000
  C   C25       1.0  0.3835235343910455  0.36594902456641176  0.38614858212443437  1.0000
  C   C26       1.0  0.6164726020162874  0.6340486359033618  0.6138469828072388  1.0000
  C   C27       1.0  0.6405785669847573  0.4704731586129824  0.3199518010818494  1.0000
  C   C28       1.0  0.3594377223931318  0.5295235484455745  0.6800520040565345  1.0000
  C   C29       1.0  0.5248551671363302  0.4937854416963532  0.24379073014557662  1.0000
  C   C30       1.0  0.4751662779028151  0.5062112790916871  0.7562120308139839  1.0000
  C   C31       1.0  0.2684037115256288  0.3889611848005643  0.30830676441145505  1.0000
  C   C32       1.0  0.731609047219521  0.6110421114940506  0.6916874216240814  1.0000
  C   C33       1.0  0.3370437999880522  0.4530843942675986  0.236785218827869  1.0000
  C   C34       1.0  0.662981007019752  0.5469170387311094  0.7632111726392806  1.0000
  C   C35       1.0  0.2145252922210759  0.47369666309423764  0.15127035037247794  1.0000
  C   C36       1.0  0.7854951890761296  0.52630664056808  0.84872449361319  1.0000
  C   C37       1.0  0.5261622124542668  0.7144028322653779  0.955322645371197  1.0000
  C   C38       1.0  0.47381961596994404  0.28560038606120486  0.044677064331189294  1.0000
  C   C39       1.0  0.326079656077617  0.7823509817958794  0.8756533606856464  1.0000
  C   C40       1.0  0.6739095090961978  0.2176513369725726  0.12434237154802469  1.0000
  C   C41       1.0  0.4916780296592262  0.8512865721857633  0.8642846176685522  1.0000
  C   C42       1.0  0.5083136987587762  0.1487157358120683  0.13571355810020688  1.0000
  C   C43       1.0  0.8120497451737733  0.8506903499558264  0.923925346470945  1.0000
  C   C44       1.0  0.18793910758980556  0.1493053979369137  0.0760759688598895  1.0000
  C   C45       1.0  0.8986000246328557  0.9787717083769608  0.9973080698746628  1.0000
  C   C46       1.0  0.10140128042887397  0.021223105189889697  0.0026963792759958014  1.0000
  N   N1        1.0  0.3498292065584677  0.6975976395158484  0.9325336704850429  1.0000
  N   N2        1.0  0.6501607666863476  0.3024065371926596  0.06746391852506407  1.0000
  N   N3        1.0  0.6174078469039725  0.8066354077911695  0.914973484274867  1.0000
  N   N4        1.0  0.38258556534832167  0.19336782158696758  0.08502721235270631  1.0000
  O   O1        1.0  0.09439126863587427  0.7073116244793879  0.07088340930294382  1.0000
  O   O2        1.0  0.905612593970126  0.2926860477669209  0.9291120721727353  1.0000
  O   O3        1.0  0.8446501430017148  0.5932334426089766  0.11541265021260468  1.0000
  O   O4        1.0  0.15534870814919796  0.4067763361036397  0.8845873503879815  1.0000
  O   O5        1.0  0.018041548279555293  0.1314724680590089  0.4161184804949585  1.0000
  O   O6        1.0  0.9819655356706178  0.8685326227210055  0.5838866523048623  1.0000
  O   O7        1.0  0.6957444753195999  0.38878123605131515  0.4634687822361627  1.0000
  O   O8        1.0  0.3042487177410109  0.6112126588131659  0.5365311149516501  1.0000
  O   O9        1.0  0.044794695559332375  0.4244094651205685  0.1424079249312769  1.0000
  O   O10       1.0  0.9552275830770824  0.5755891444693972  0.8575915029618528  1.0000
  O   O11       1.0  0.28892132684032384  0.5373669923500586  0.09200328399317209  1.0000
  O   O12       1.0  0.7110857550565369  0.4626409722888668  0.9079896961904623  1.0000
