data_image0
_chemical_formula_structural       Cd2H32C34S2N4O14
_chemical_formula_sum              "Cd2 H32 C34 S2 N4 O14"
_cell_length_a       8.021029321501073
_cell_length_b       8.433842459530624
_cell_length_c       14.885528234859041
_cell_angle_alpha    84.86649278690692
_cell_angle_beta     74.42030310214449
_cell_angle_gamma    70.76955174295985

_space_group_name_H-M_alt    "P 1"
_space_group_IT_number       1

loop_
  _space_group_symop_operation_xyz
  'x, y, z'

loop_
  _atom_site_type_symbol
  _atom_site_label
  _atom_site_symmetry_multiplicity
  _atom_site_fract_x
  _atom_site_fract_y
  _atom_site_fract_z
  _atom_site_occupancy
  Cd  Cd1       1.0  0.09312947167791229  0.0013960944903957037  0.7858404170460956  1.0000
  Cd  Cd2       1.0  0.8800373191715636  0.5010427122277648  0.214681154719834  1.0000
  H   H1        1.0  0.8934000946241555  0.12714764619016716  0.5735132315667996  1.0000
  H   H2        1.0  0.46941700806480924  0.6252011228543353  0.4264313733497929  1.0000
  H   H3        1.0  0.8335365909482491  0.4142929500400642  0.5060040703629838  1.0000
  H   H4        1.0  0.3432585350194514  0.9121108131771862  0.4940583881518421  1.0000
  H   H5        1.0  0.567336752461891  0.6510914772225008  0.5900408082059982  1.0000
  H   H6        1.0  0.16043731866382427  0.14964774879275922  0.4103231686850037  1.0000
  H   H7        1.0  0.4114387102113351  0.3067359284009329  0.7996871093478931  1.0000
  H   H8        1.0  0.21173118985382886  0.8067711651026743  0.20064414748451748  1.0000
  H   H9        1.0  0.38664837324125756  0.0528924335341117  0.5988047284587736  1.0000
  H   H10       1.0  0.9856848176741833  0.5531980019605315  0.402003160516017  1.0000
  H   H11       1.0  0.42396167493582515  0.2797065457231581  0.478612197447056  1.0000
  H   H12       1.0  0.9033194877204237  0.7806542830800823  0.5216280775944497  1.0000
  H   H13       1.0  0.21306829976612834  0.5721986158623976  0.5153158495241357  1.0000
  H   H14       1.0  0.7298657696343797  0.0731418018160994  0.4839562653690733  1.0000
  H   H15       1.0  0.9704020048065587  0.6298536002585636  0.6633994444542851  1.0000
  H   H16       1.0  0.6357673121279886  0.13007062771963263  0.335653729060347  1.0000
  H   H17       1.0  0.7622201831483578  0.6567539923251928  0.7738442895912669  1.0000
  H   H18       1.0  0.5372950920611004  0.15663697220893624  0.22543930989127148  1.0000
  H   H19       1.0  0.5046259837804854  0.6796699769301712  0.9130705074171956  1.0000
  H   H20       1.0  0.4181106390244124  0.1791527371247525  0.0863076946591477  1.0000
  H   H21       1.0  0.49244864319237525  0.42158970990995215  0.01042533922056069  1.0000
  H   H22       1.0  0.5025849944995356  0.9208121442555283  0.9895395884583705  1.0000
  H   H23       1.0  0.7359050992254835  0.14867544528964066  0.9576911211622415  1.0000
  H   H24       1.0  0.6938234673495101  0.6481423592171752  0.04254021542251962  1.0000
  H   H25       1.0  0.17082584323278388  0.12102515538935422  0.9425061235927288  1.0000
  H   H26       1.0  0.1134364676273449  0.6205891315172708  0.057582759425074  1.0000
  H   H27       1.0  0.36116796365067955  0.010301051045054502  0.8726536408681368  1.0000
  H   H28       1.0  0.2344117156652671  0.5098782051208277  0.1273883454960014  1.0000
  H   H29       1.0  0.11966019137244642  0.7082017210404673  0.9227063899238174  1.0000
  H   H30       1.0  0.042986761090098496  0.20878774723615837  0.0772042483683748  1.0000
  H   H31       1.0  0.14017293124906152  0.8505797836796206  0.9754405582918437  1.0000
  H   H32       1.0  0.11566822459731439  0.35110746091049805  0.02416294877831151  1.0000
  C   C1        1.0  0.6537664660597003  0.1992042870530071  0.6893669177405783  1.0000
  C   C2        1.0  0.3447050598989207  0.6984081407406963  0.31072915839540366  1.0000
  C   C3        1.0  0.7735714104229245  0.22920268943062178  0.6071078216633694  1.0000
  C   C4        1.0  0.3830889021596914  0.7276688563242217  0.3929389422105061  1.0000
  C   C5        1.0  0.74036224673403  0.3911620310833825  0.5701065123106658  1.0000
  C   C6        1.0  0.31347643753809246  0.8894494514881828  0.4300309135970366  1.0000
  C   C7        1.0  0.5911654762756697  0.5226415375938842  0.6158396698552409  1.0000
  C   C8        1.0  0.2096962587604168  0.021300262084707807  0.3844667871178089  1.0000
  C   C9        1.0  0.47230329262422555  0.49192795960647123  0.6984342059938697  1.0000
  C   C10       1.0  0.17248592282353312  0.9913019313976789  0.3019388864291344  1.0000
  C   C11       1.0  0.5034395035877426  0.32909664725496424  0.7350083036625746  1.0000
  C   C12       1.0  0.23961303725317856  0.8286926036246599  0.2652639480246108  1.0000
  C   C13       1.0  0.3151125973987945  0.6333605862576447  0.7508842756770093  1.0000
  C   C14       1.0  0.06740168791703377  0.13332555892109352  0.24970047202156556  1.0000
  C   C15       1.0  0.2934792356574505  0.1814361191434131  0.6075262234271648  1.0000
  C   C16       1.0  0.9015240453521898  0.681742903590184  0.3929117809807606  1.0000
  C   C17       1.0  0.31664413778338485  0.3072678367962212  0.5431474941543186  1.0000
  C   C18       1.0  0.8605421146106095  0.8078592633456196  0.4569951438266315  1.0000
  C   C19       1.0  0.19771318119560288  0.47009229207727543  0.563598989213176  1.0000
  C   C20       1.0  0.762586929884897  0.9706682254578284  0.4360169093198323  1.0000
  C   C21       1.0  0.06000418822161187  0.5021075601696694  0.6459901696045662  1.0000
  C   C22       1.0  0.707528812160831  0.002328948646152205  0.3534329883324077  1.0000
  C   C23       1.0  0.03927505068135407  0.3676928989425505  0.705596221316064  1.0000
  C   C24       1.0  0.7460697002208007  0.867678791058623  0.2942130871356384  1.0000
  C   C25       1.0  0.8863272964946275  0.3895258950814268  0.7909163621207113  1.0000
  C   C26       1.0  0.6782355763284327  0.8893547322857034  0.20885838282023167  1.0000
  C   C27       1.0  0.754811447727242  0.5462628959917312  0.8160724571872536  1.0000
  C   C28       1.0  0.5717908668379792  0.04604711799391481  0.183467600922242  1.0000
  C   C29       1.0  0.6102482312344505  0.5589281959297665  0.8945722451094014  1.0000
  C   C30       1.0  0.5052574085221976  0.0584990241826731  0.1050397722411347  1.0000
  C   C31       1.0  0.6012351579501996  0.4160748658355331  0.9476783546512237  1.0000
  C   C32       1.0  0.5489713181328142  0.9155053664933491  0.0522311531787665  1.0000
  C   C33       1.0  0.7370816656714679  0.2643767469120989  0.9189685927466656  1.0000
  C   C34       1.0  0.6563586456399974  0.7639206088194116  0.0810909278397887  1.0000
  S   S1        1.0  0.6921905038847027  0.9899098533552575  0.7326590604482064  1.0000
  S   S2        1.0  0.42593654590544366  0.4894224914753309  0.2671772094250642  1.0000
  N   N1        1.0  0.15662955113758403  0.21114252328901273  0.6855317607272227  1.0000
  N   N2        1.0  0.8429704309191095  0.7111276566896195  0.3147308739723229  1.0000
  N   N3        1.0  0.8742957542902585  0.2513513839370987  0.8423303540153668  1.0000
  N   N4        1.0  0.717394901730337  0.751008783660815  0.15768528088618441  1.0000
  O   O1        1.0  0.8904573943916815  0.9205676152576745  0.7278118091115217  1.0000
  O   O2        1.0  0.6194419743432393  0.41988728056112024  0.27188672064407626  1.0000
  O   O3        1.0  0.6434679623087689  0.8989881098235417  0.6701073865335871  1.0000
  O   O4        1.0  0.31488120625807886  0.39820538219786533  0.32963389308895324  1.0000
  O   O5        1.0  0.5799945949314919  0.0026310151068643004  0.829681397300831  1.0000
  O   O6        1.0  0.4100991972879484  0.5030970564263413  0.17018460533827107  1.0000
  O   O7        1.0  0.2145679571296243  0.6000394805116046  0.8260097382868068  1.0000
  O   O8        1.0  0.04251374140316235  0.10088010492213333  0.1742241835959177  1.0000
  O   O9        1.0  0.2991374467491711  0.7794498078030188  0.7137641033528368  1.0000
  O   O10       1.0  0.013415036124037343  0.27894969670170866  0.2873563770942837  1.0000
  O   O11       1.0  0.23277706455888134  0.0140328355611814  0.9030953476489715  1.0000
  O   O12       1.0  0.1361656670931737  0.5135580200174629  0.0970936377298131  1.0000
  O   O13       1.0  0.07442924725682336  0.7679013748600808  0.9844979030554484  1.0000
  O   O14       1.0  0.05900546506488514  0.268305688878023  0.015300270730350004  1.0000
