data_image0
_chemical_formula_structural       Ag4H40C48N20O12F16
_chemical_formula_sum              "Ag4 H40 C48 N20 O12 F16"
_cell_length_a       7.706759386900734
_cell_length_b       12.53654568217558
_cell_length_c       16.23777089460196
_cell_angle_alpha    87.27834525688633
_cell_angle_beta     76.72587123898381
_cell_angle_gamma    78.06495577916529

_space_group_name_H-M_alt    "P 1"
_space_group_IT_number       1

loop_
  _space_group_symop_operation_xyz
  'x, y, z'

loop_
  _atom_site_type_symbol
  _atom_site_label
  _atom_site_symmetry_multiplicity
  _atom_site_fract_x
  _atom_site_fract_y
  _atom_site_fract_z
  _atom_site_occupancy
  Ag  Ag1       1.0  0.7774240945321298  0.4623001015371101  0.9966147636087185  1.0000
  Ag  Ag2       1.0  0.22554915294093583  0.0378841886901782  0.9966369667914348  1.0000
  Ag  Ag3       1.0  0.22257509041421739  0.537700782076719  0.003384197646163007  1.0000
  Ag  Ag4       1.0  0.7744460546469797  0.9621158796313194  0.003364908045860188  1.0000
  H   H1        1.0  0.7254777956986092  0.6407349808435612  0.09701189420383122  1.0000
  H   H2        1.0  0.1775394981470697  0.8593270838557528  0.09731892903690208  1.0000
  H   H3        1.0  0.27452009695463925  0.3592642721856051  0.9029889078805977  1.0000
  H   H4        1.0  0.8224550743999972  0.140671353881082  0.9026827913334472  1.0000
  H   H5        1.0  0.7290252450360769  0.7780139033402234  0.09997935724247496  1.0000
  H   H6        1.0  0.17138837815012664  0.7220652824980148  0.09995596244374377  1.0000
  H   H7        1.0  0.2709726476171784  0.22198534968894273  0.9000214448419538  1.0000
  H   H8        1.0  0.8286080566575226  0.2779347858234829  0.9000446851738174  1.0000
  H   H9        1.0  0.8709491367939537  0.8863540245895933  0.8259118166619216  1.0000
  H   H10       1.0  0.30377271515404686  0.6132327246814242  0.8257305409501682  1.0000
  H   H11       1.0  0.1290564058599203  0.11364359785491017  0.17408991222380618  1.0000
  H   H12       1.0  0.6962259212557882  0.3867697895170608  0.17426842030476308  1.0000
  H   H13       1.0  0.8766133816591053  0.5415823888590339  0.821118447659799  1.0000
  H   H14       1.0  0.30181987174317026  0.9580940425682697  0.8214274859240547  1.0000
  H   H15       1.0  0.12339757398741825  0.4584168641701324  0.17888267187380788  1.0000
  H   H16       1.0  0.6981725066578691  0.0419109175072094  0.17857423444650067  1.0000
  H   H17       1.0  0.9191802829022181  0.8269493795612419  0.3703053869146443  1.0000
  H   H18       1.0  0.7105707695648108  0.6734273879773836  0.37133175235972254  1.0000
  H   H19       1.0  0.0808199769057439  0.17304987346792436  0.6296957241035699  1.0000
  H   H20       1.0  0.28942676231584874  0.3265694191747882  0.6286688952577392  1.0000
  H   H21       1.0  0.16039587888253254  0.7966417024921668  0.3347127432099839  1.0000
  H   H22       1.0  0.5055512205553043  0.7032817625110752  0.33428993727095246  1.0000
  H   H23       1.0  0.8396045547145266  0.2033608117063253  0.665285758901973  1.0000
  H   H24       1.0  0.4944456548535287  0.29671178347177823  0.6657097878027542  1.0000
  H   H25       1.0  0.0580683442838607  0.8799816997396517  0.42552112349750354  1.0000
  H   H26       1.0  0.5177531679322129  0.6200420462201633  0.4252990183044432  1.0000
  H   H27       1.0  0.9419336122321696  0.12002162975116447  0.5744769194715076  1.0000
  H   H28       1.0  0.48224463821669883  0.3799539456396842  0.5747016293129902  1.0000
  H   H29       1.0  0.2575001098015124  0.5873056133005221  0.3667341860602065  1.0000
  H   H30       1.0  0.37641563810139195  0.9130670777764535  0.3661721370807314  1.0000
  H   H31       1.0  0.7424977177783775  0.4126920091439814  0.6332672296340363  1.0000
  H   H32       1.0  0.6235819389824829  0.08692320703708838  0.6338212931696104  1.0000
  H   H33       1.0  0.034680217681533336  0.6158791635840543  0.3482888755460678  1.0000
  H   H34       1.0  0.6168347724633139  0.8840198426492946  0.3490082523886143  1.0000
  H   H35       1.0  0.9653164906139436  0.3841233506144377  0.6517146899117136  1.0000
  H   H36       1.0  0.38315957101872317  0.1159728880412345  0.6509862506146504  1.0000
  H   H37       1.0  0.07652054390637635  0.5423455024797548  0.4404851057615247  1.0000
  H   H38       1.0  0.4841690386755957  0.9576660140951104  0.44086394069375245  1.0000
  H   H39       1.0  0.9234759115518333  0.4576594575957244  0.5595192277730945  1.0000
  H   H40       1.0  0.5158229236769218  0.042334054226387294  0.5591277989364939  1.0000
  C   C1        1.0  0.8030420105272927  0.709738062470997  0.9812266184137071  1.0000
  C   C2        1.0  0.21578770972755773  0.7901707272703078  0.9812333694463573  1.0000
  C   C3        1.0  0.19695892796389106  0.29026282114283214  0.0187732653848229  1.0000
  C   C4        1.0  0.784206105088103  0.2098317869281772  0.0187677373142563  1.0000
  C   C5        1.0  0.8580782373484583  0.8077158182082369  0.8557596163247324  1.0000
  C   C6        1.0  0.28672537413099536  0.6919116956792805  0.8556885430901602  1.0000
  C   C7        1.0  0.14192741402116124  0.1922834348209292  0.1442401172645589  1.0000
  C   C8        1.0  0.7132714214492495  0.3080908185192115  0.1443122589943684  1.0000
  C   C9        1.0  0.882537472068826  0.7143819675817014  0.8070129466596753  1.0000
  C   C10       1.0  0.31092916656116665  0.7851754311654416  0.8070762436632961  1.0000
  C   C11       1.0  0.11747173003285388  0.285617285447465  0.19298725033028316  1.0000
  C   C12       1.0  0.6890670804825663  0.214828713617699  0.19292455842128925  1.0000
  C   C13       1.0  0.8633032762385757  0.6185777811957891  0.8529178918290511  1.0000
  C   C14       1.0  0.28373282684582807  0.8811059878624832  0.8530969822583145  1.0000
  C   C15       1.0  0.13670233148866381  0.3814214718333772  0.1470832234468631  1.0000
  C   C16       1.0  0.7162603743599761  0.11889652633600177  0.1469047381121698  1.0000
  C   C17       1.0  0.9309358070470571  0.7157011105713662  0.7144315173609072  1.0000
  C   C18       1.0  0.35512007705061444  0.783914173931201  0.7144817155288549  1.0000
  C   C19       1.0  0.0690759928352024  0.2842973271654685  0.285570370249431  1.0000
  C   C20       1.0  0.6448824708638767  0.21609078614427796  0.2855178635937179  1.0000
  C   C21       1.0  0.8492973262761725  0.7982853318290992  0.6660282408727126  1.0000
  C   C22       1.0  0.4847965077486197  0.7013870231365543  0.6665967004545549  1.0000
  C   C23       1.0  0.15071183218312703  0.2017139212000671  0.3339733378038757  1.0000
  C   C24       1.0  0.5152045172469075  0.2986171216465934  0.33340333781097087  1.0000
  C   C25       1.0  0.8903071412781858  0.7973722044196947  0.5783107456447283  1.0000
  C   C26       1.0  0.5314414138873365  0.7024485337499939  0.5788994194127994  1.0000
  C   C27       1.0  0.10970360517344366  0.20262949448646586  0.4216897602790937  1.0000
  C   C28       1.0  0.46855952460385475  0.2975523498638352  0.42110046438573073  1.0000
  C   C29       1.0  0.02368366083763388  0.7150456155381872  0.5300292961926374  1.0000
  C   C30       1.0  0.44674626320363614  0.7849096458659232  0.5300564383556646  1.0000
  C   C31       1.0  0.9763282691913491  0.2849560833679732  0.4699713641980735  1.0000
  C   C32       1.0  0.5532534917101942  0.215091237747906  0.4699432909759764  1.0000
  C   C33       1.0  0.11217555251163017  0.6351045720137591  0.5795866403702732  1.0000
  C   C34       1.0  0.30902064078043917  0.8647716060343524  0.5790409365371615  1.0000
  C   C35       1.0  0.8878363124439876  0.36489549630773865  0.42041463363025133  1.0000
  C   C36       1.0  0.6909782698976561  0.1352300928718009  0.42095802471774135  1.0000
  C   C37       1.0  0.06408108605108279  0.6341531258648486  0.6670974926502494  1.0000
  C   C38       1.0  0.26960924786487817  0.865568146640598  0.666590796050123  1.0000
  C   C39       1.0  0.9359262974323954  0.3658444965796619  0.332902395405874  1.0000
  C   C40       1.0  0.7303911857321882  0.134434367557887  0.33340770606182696  1.0000
  C   C41       1.0  0.04843287784319745  0.8092338925263789  0.3912795497651373  1.0000
  C   C42       1.0  0.5608807183451247  0.6908942108516527  0.39139284493331417  1.0000
  C   C43       1.0  0.951570767144311  0.1907678063797746  0.608720029357336  1.0000
  C   C44       1.0  0.43911679210455673  0.3091009657158708  0.6086070346073313  1.0000
  C   C45       1.0  0.11245693870786537  0.6084746786445407  0.3979335736389871  1.0000
  C   C46       1.0  0.4901009116878187  0.8916240742096162  0.39808761819425337  1.0000
  C   C47       1.0  0.8875418410430883  0.3915270202616127  0.6020695326757987  1.0000
  C   C48       1.0  0.509892861826728  0.1083686564809128  0.6019061167322447  1.0000
  N   N1        1.0  0.8259402417520154  0.615341070646366  0.9376875107673257  1.0000
  N   N2        1.0  0.23613286049001006  0.8845179862628214  0.9378158634485486  1.0000
  N   N3        1.0  0.17406272455226468  0.38465899767513173  0.0623132955748247  1.0000
  N   N4        1.0  0.7638556278373515  0.1154861585203264  0.062186007131181505  1.0000
  N   N5        1.0  0.7676776926689256  0.70686171113136  0.06578226018647368  1.0000
  N   N6        1.0  0.16660946661291834  0.7931987229832984  0.06573752916443709  1.0000
  N   N7        1.0  0.23231817217123335  0.2931383571901378  0.9342176193543351  1.0000
  N   N8        1.0  0.8333849403816348  0.2068021606305308  0.934262195909504  1.0000
  N   N9        1.0  0.8203322532023243  0.8062067121057197  0.9405370693624702  1.0000
  N   N10       1.0  0.23942351906537634  0.6935944590480432  0.940431455316954  1.0000
  N   N11       1.0  0.17966777597976596  0.1937933562157781  0.05946265996914239  1.0000
  N   N12       1.0  0.7605693864411834  0.30640723985811036  0.059569496976742194  1.0000
  N   N13       1.0  0.06526720096263716  0.7115961136906748  0.4436738020914035  1.0000
  N   N14       1.0  0.49148924747071054  0.7884895944862009  0.44373098111721276  1.0000
  N   N15       1.0  0.9347414740335155  0.2884064005078102  0.5563271629754212  1.0000
  N   N16       1.0  0.5085041637103986  0.2115072126659783  0.5562684350228152  1.0000
  N   N17       1.0  0.5877933193948556  0.4066833046731446  0.8425553769343849  1.0000
  N   N18       1.0  0.5680061450102803  0.09335586351944158  0.8427633597472237  1.0000
  N   N19       1.0  0.4122048475266524  0.5933151330636973  0.15744542515001567  1.0000
  N   N20       1.0  0.4319917912853557  0.9066433895097319  0.15723606065057538  1.0000
  O   O1        1.0  0.5345582630077818  0.43019388958843047  0.9219091636455374  1.0000
  O   O2        1.0  0.5426599221614913  0.0699602348226591  0.9221492003271692  1.0000
  O   O3        1.0  0.4654378324582569  0.5698053634407358  0.07809209758186599  1.0000
  O   O4        1.0  0.4573344197597039  0.9300390182065142  0.07785113835658561  1.0000
  O   O5        1.0  0.7571165945643803  0.3796881603401658  0.8109489566349877  1.0000
  O   O6        1.0  0.4302512278086967  0.12056624502748998  0.8105222902867054  1.0000
  O   O7        1.0  0.24288072812138503  0.6203110926890076  0.18905107737268168  1.0000
  O   O8        1.0  0.5697461813814115  0.8794362691709949  0.18947789818795968  1.0000
  O   O9        1.0  0.4710444252594078  0.4099762703933222  0.799177971432776  1.0000
  O   O10       1.0  0.7273993719985868  0.0897506408369324  0.7999504597186444  1.0000
  O   O11       1.0  0.5289525795157248  0.5900237979281754  0.20082344426154458  1.0000
  O   O12       1.0  0.2725976549879479  0.9102477968999024  0.20004880621224427  1.0000
  F   F1        1.0  0.7134230764534238  0.8789609537427054  0.7058843231838735  1.0000
  F   F2        1.0  0.5804982870662349  0.6206127508510447  0.7070394328647039  1.0000
  F   F3        1.0  0.2865875398514819  0.12103748399413657  0.2941174099595826  1.0000
  F   F4        1.0  0.419502124319422  0.3793913939321029  0.2929612190106923  1.0000
  F   F5        1.0  0.7877691886150875  0.8746570255335371  0.5385027547142441  1.0000
  F   F6        1.0  0.6731648598264925  0.6250585399256039  0.5397504813763446  1.0000
  F   F7        1.0  0.2122450863572001  0.1253463039572793  0.461500364373684  1.0000
  F   F8        1.0  0.3268336678676037  0.3749423436882252  0.4602504751750231  1.0000
  F   F9        1.0  0.25802560330017626  0.5597854207071363  0.5407043764952703  1.0000
  F   F10       1.0  0.20231327001355515  0.9401869618358987  0.5395126853401279  1.0000
  F   F11       1.0  0.7419851867938337  0.4402162781990241  0.4592947477419287  1.0000
  F   F12       1.0  0.7976813898182656  0.059811475900943385  0.46048627165697537  1.0000
  F   F13       1.0  0.16136328060503782  0.5543058409583493  0.7079654594820538  1.0000
  F   F14       1.0  0.1317665000246398  0.9453542846223542  0.7068466932486784  1.0000
  F   F15       1.0  0.8386402350161716  0.4456893356091669  0.2920324290198053  1.0000
  F   F16       1.0  0.8682354564913837  0.054649044868462185  0.29315134972032547  1.0000
