data_image0
_chemical_formula_structural       Cd2H12C20Br8N4Cl4
_chemical_formula_sum              "Cd2 H12 C20 Br8 N4 Cl4"
_cell_length_a       3.859841257128848
_cell_length_b       14.016286106399503
_cell_length_c       14.016305679659059
_cell_angle_alpha    90.0007364347225
_cell_angle_beta     89.99917628506391
_cell_angle_gamma    90.0004573238224

_space_group_name_H-M_alt    "P 1"
_space_group_IT_number       1

loop_
  _space_group_symop_operation_xyz
  'x, y, z'

loop_
  _atom_site_type_symbol
  _atom_site_label
  _atom_site_symmetry_multiplicity
  _atom_site_fract_x
  _atom_site_fract_y
  _atom_site_fract_z
  _atom_site_occupancy
  Cd  Cd1       1.0  0.5000039800089124  0.5000017682265607  0.9999989745193645  1.0000
  Cd  Cd2       1.0  0.5000047873882777  1.9948451779999865e-07  0.4999995312521222  1.0000
  H   H1        1.0  0.7320760066793996  0.52954120545202  0.2185345884604573  1.0000
  H   H2        1.0  0.7320551300519397  0.4704592714580543  0.7814635698657995  1.0000
  H   H3        1.0  0.26793699135447463  0.2185348182088377  0.4704650766806679  1.0000
  H   H4        1.0  0.26795389896992106  0.7814703391687632  0.5295306195722134  1.0000
  H   H5        1.0  0.7320541967478461  0.02953255280076661  0.2814695004138414  1.0000
  H   H6        1.0  0.7320562135081444  0.970460789560903  0.7185336520904926  1.0000
  H   H7        1.0  0.2679454519202621  0.7185331935053301  0.0295396926375631  1.0000
  H   H8        1.0  0.2679350749962666  0.2814676831812904  0.9704645650652283  1.0000
  H   H9        1.0  0.49998252070598426  0.8161289050101319  0.3161260807105108  1.0000
  H   H10       1.0  0.5000077663465348  0.18386677758530826  0.6838758407571319  1.0000
  H   H11       1.0  0.5000047195274178  0.31612042489398123  0.18387903360518007  1.0000
  H   H12       1.0  0.49999334004505863  0.6838759711245503  0.8161164667589844  1.0000
  C   C1        1.0  0.6275056689358038  0.6009051437331366  0.2074167729625529  1.0000
  C   C2        1.0  0.6275002870215899  0.3990965287207261  0.7925882161860613  1.0000
  C   C3        1.0  0.3724922356193545  0.20741027313160032  0.39910505528072804  1.0000
  C   C4        1.0  0.372497927395564  0.7925936887423221  0.6008945120219451  1.0000
  C   C5        1.0  0.6274962263974472  0.10089948787113914  0.292594350499165  1.0000
  C   C6        1.0  0.6274993666105074  0.8991036114460872  0.7074049310408413  1.0000
  C   C7        1.0  0.372489160163873  0.7074138464424636  0.100905582515523  1.0000
  C   C8        1.0  0.37250100267138453  0.2925815539761417  0.8990961250964062  1.0000
  C   C9        1.0  0.6284504071895183  0.6699246017487968  0.2790823183481805  1.0000
  C   C10       1.0  0.6284623630022705  0.33007635934096413  0.7209198132409612  1.0000
  C   C11       1.0  0.37155463431133745  0.27908216678286385  0.3300759158783677  1.0000
  C   C12       1.0  0.3715572131308845  0.7209189391758176  0.6699215147217004  1.0000
  C   C13       1.0  0.6284473354428995  0.1699215919274622  0.2209189866645573  1.0000
  C   C14       1.0  0.6284421177568119  0.8300722345468404  0.7790781507410998  1.0000
  C   C15       1.0  0.37155050925581173  0.7790852004029959  0.169923518019587  1.0000
  C   C16       1.0  0.3715535656476376  0.22091519213718416  0.8300810471387194  1.0000
  C   C17       1.0  0.5000013137226559  0.7612252779399286  0.2612253840919649  1.0000
  C   C18       1.0  0.5000096996768874  0.23877254502737344  0.7387736835297859  1.0000
  C   C19       1.0  0.4999791645665823  0.2612210707510059  0.2387811649820719  1.0000
  C   C20       1.0  0.5000266673719621  0.7387810329359257  0.7612164757678244  1.0000
  Br  Br1       1.0  0.8039124795735971  0.6380269771931142  0.40171180060386297  1.0000
  Br  Br2       1.0  0.8039059134559351  0.3619736587197266  0.59828678966349  1.0000
  Br  Br3       1.0  0.19607165716775646  0.4017130933654727  0.36198203114103217  1.0000
  Br  Br4       1.0  0.19609311519598546  0.5982933318732864  0.6380125198012933  1.0000
  Br  Br5       1.0  0.80390292127597  0.13801597002938593  0.0982948279631586  1.0000
  Br  Br6       1.0  0.8039154715619716  0.8619818120971134  0.9017094699239436  1.0000
  Br  Br7       1.0  0.19606921462149524  0.9017092958049847  0.1380232337113938  1.0000
  Br  Br8       1.0  0.19608519426250126  0.09828785455250262  0.8619798786487465  1.0000
  N   N1        1.0  0.5000107715963223  0.620513062101921  0.1205097975700866  1.0000
  N   N2        1.0  0.499992469409868  0.37948761470273246  0.8794928373590309  1.0000
  N   N3        1.0  0.49999933666274626  0.12051351744883484  0.3794899487945003  1.0000
  N   N4        1.0  0.5000013137103848  0.8794843054840699  0.6205055515737569  1.0000
  Cl  Cl1       1.0  8.718843389000024e-07  0.4084069208926949  0.0915930927453772  1.0000
  Cl  Cl2       1.0  5.285752017400001e-06  0.5915947896701398  0.9084029399456668  1.0000
  Cl  Cl3       1.0  3.853072406900001e-06  0.09159582520560862  0.5915958484365049  1.0000
  Cl  Cl4       1.0  2.3044801409000014e-06  0.9084065988359102  0.40840375153293  1.0000
