data_image0
_chemical_formula_structural       Mn3H108C90N18O18
_chemical_formula_sum              "Mn3 H108 C90 N18 O18"
_cell_length_a       11.87315582031144
_cell_length_b       16.21570348824436
_cell_length_c       16.217785893089435
_cell_angle_alpha    114.26280349817499
_cell_angle_beta     104.10940797351839
_cell_angle_gamma    104.12533484147524

_space_group_name_H-M_alt    "P 1"
_space_group_IT_number       1

loop_
  _space_group_symop_operation_xyz
  'x, y, z'

loop_
  _atom_site_type_symbol
  _atom_site_label
  _atom_site_symmetry_multiplicity
  _atom_site_fract_x
  _atom_site_fract_y
  _atom_site_fract_z
  _atom_site_occupancy
  Mn  Mn1       1.0  0.4999946897394593  0.5000028666380417  1.8035231050589764e-06  1.0000
  Mn  Mn2       1.0  0.9999961352428529  0.5000045832022764  0.5000063418907814  1.0000
  Mn  Mn3       1.0  0.5000002420859673  0.9999977858693683  0.499992927525618  1.0000
  H   H1        1.0  0.6569520814856702  0.35686090945367965  0.7310375913822468  1.0000
  H   H2        1.0  0.3975193996393358  0.07751662188585581  0.7136822832810877  1.0000
  H   H3        1.0  0.3686672659278046  0.2893079921263819  0.9685895887132075  1.0000
  H   H4        1.0  0.3551258033351701  0.09673596075570147  0.9271505613627298  1.0000
  H   H5        1.0  0.2194227535639328  0.10965891180094901  0.8723539115490624  1.0000
  H   H6        1.0  0.19184661195569655  0.9781288785017423  0.7045599174816742  1.0000
  H   H7        1.0  0.19131850143590864  0.9343883548534891  0.7882009256898072  1.0000
  H   H8        1.0  0.32749834136305356  0.9635802120946478  0.7618967131130031  1.0000
  H   H9        1.0  0.6710512828026722  0.5085198177563727  0.668665256822564  1.0000
  H   H10       1.0  0.7172869861394773  0.6300991880353093  0.7669707777826885  1.0000
  H   H11       1.0  0.5669968010134524  0.5375204796977826  0.7282764518340625  1.0000
  H   H12       1.0  0.9114667304363736  0.6261104731276462  0.8626538748873999  1.0000
  H   H13       1.0  0.8853863073194574  0.44993692254269735  0.8958029629111477  1.0000
  H   H14       1.0  0.917836952506164  0.5714022657897926  0.9864885909094311  1.0000
  H   H15       1.0  0.029173857142715913  0.5462947449698419  0.9342047483444986  1.0000
  H   H16       1.0  0.9892366843627511  0.4997124445437747  0.7629557653148422  1.0000
  H   H17       1.0  0.8627061420000288  0.5092962138650349  0.6884621770781719  1.0000
  H   H18       1.0  0.8364197456809703  0.4092354977592762  0.7112913521138607  1.0000
  H   H19       1.0  0.30030376090584093  0.3745159078425289  0.6433258245542745  1.0000
  H   H20       1.0  0.32027048962756766  0.6367391375180276  0.9226097743255578  1.0000
  H   H21       1.0  0.07939510849527644  0.6795619116740282  0.7108067873044845  1.0000
  H   H22       1.0  0.25854144750507385  0.8308879230191977  0.9033781177400826  1.0000
  H   H23       1.0  0.10991823098252947  0.7631512235009127  0.8904985743826896  1.0000
  H   H24       1.0  0.21385071327276242  0.7268940977072518  0.021965180952292843  1.0000
  H   H25       1.0  0.2570138851312789  0.8542925534452549  0.06571168976598336  1.0000
  H   H26       1.0  0.3640233768236312  0.7988049834263221  0.036488693981766566  1.0000
  H   H27       1.0  0.1628974460054522  0.1602749265045702  0.4915427118392159  1.0000
  H   H28       1.0  0.087702068955025  0.1371053587845026  0.3700291528539168  1.0000
  H   H29       1.0  0.02972921772634858  0.19074747030566638  0.4625373095547474  1.0000
  H   H30       1.0  0.285682890597144  0.23704056568041657  0.3740852551629885  1.0000
  H   H31       1.0  0.4356872291793152  0.4462254582550003  0.5505848138620449  1.0000
  H   H32       1.0  0.34684196021485286  0.41568826738254216  0.4292206646654364  1.0000
  H   H33       1.0  0.4832402940726651  0.3885066376540606  0.4541765889402356  1.0000
  H   H34       1.0  0.4897153737419799  0.2634733312607764  0.5002061527811961  1.0000
  H   H35       1.0  0.35361269331907846  0.17924400581923544  0.49049139388144875  1.0000
  H   H36       1.0  0.4274157004199424  0.30205874917054126  0.5907580375624163  1.0000
  H   H37       1.0  0.9258213271197563  0.2688873890686239  0.6256529469625249  1.0000
  H   H38       1.0  0.6839704495275213  0.2859343625823528  0.36340346794701617  1.0000
  H   H39       1.0  0.4001317531262032  0.031252657974455596  0.3205330112007516  1.0000
  H   H40       1.0  0.42810634879617027  0.0724428753460629  0.1692813947392793  1.0000
  H   H41       1.0  0.3471726131327557  0.1272526464368227  0.2370329311395309  1.0000
  H   H42       1.0  0.48717525787373733  0.29504301994760607  0.2732195508541864  1.0000
  H   H43       1.0  0.40299092415054355  0.2113186299480745  0.14585416174499946  1.0000
  H   H44       1.0  0.5655031676234259  0.23771203911753958  0.20129854034885136  1.0000
  H   H45       1.0  0.0024255577029705403  0.3313030622496099  0.8398212426502737  1.0000
  H   H46       1.0  0.9502345079244138  0.23288623095334055  0.8629052891897471  1.0000
  H   H47       1.0  0.838761051999654  0.2717998155510628  0.8092940333189347  1.0000
  H   H48       1.0  0.04841442607357748  0.13701626239839726  0.7629645216750446  1.0000
  H   H49       1.0  0.9890766349652581  0.1041603832820144  0.5537492559149655  1.0000
  H   H50       1.0  0.9307408357796377  0.013414670270769598  0.5843960340194911  1.0000
  H   H51       1.0  0.0942714414642154  0.06544686857514388  0.6113859004886208  1.0000
  H   H52       1.0  0.22598080598503148  0.23663799234618207  0.7363788524972532  1.0000
  H   H53       1.0  0.17414010946398406  0.3112270586580408  0.8206274131136267  1.0000
  H   H54       1.0  0.12512744742536341  0.28861343852301513  0.6978358313908615  1.0000
  H   H55       1.0  0.3430719870961453  0.6431443238832841  0.26896691857314176  1.0000
  H   H56       1.0  0.6024974830140762  0.9224864092358018  0.28632681947249944  1.0000
  H   H57       1.0  0.6313172283068268  0.710697977781045  0.03140197721606329  1.0000
  H   H58       1.0  0.6448746830710732  0.9032707430325074  0.07285156639646563  1.0000
  H   H59       1.0  0.780578970972023  0.890348526075279  0.12764565610611114  1.0000
  H   H60       1.0  0.8081583496088954  0.021876356285481798  0.2954436409929713  1.0000
  H   H61       1.0  0.8086850909555282  0.0656176143765705  0.211802072773061  1.0000
  H   H62       1.0  0.6725024112996891  0.036423554268118594  0.23810672261762275  1.0000
  H   H63       1.0  0.3289605324456985  0.49148174413467416  0.33133185372316376  1.0000
  H   H64       1.0  0.28272396018167  0.36990237395885833  0.23302679394961248  1.0000
  H   H65       1.0  0.4330147458936223  0.46248401980056286  0.2717218168703112  1.0000
  H   H66       1.0  0.08854494803534144  0.37389255779437036  0.13734689740025618  1.0000
  H   H67       1.0  0.11462125946318472  0.5500683120715593  0.10420106160133705  1.0000
  H   H68       1.0  0.08216924562452727  0.4286037032218388  0.01351425705875899  1.0000
  H   H69       1.0  0.9708359461766989  0.45370975523484  0.0658012245907571  1.0000
  H   H70       1.0  0.010774490735819526  0.5002913209907476  0.23704768496958195  1.0000
  H   H71       1.0  0.13730540230103822  0.49070828586062726  0.3115391742888107  1.0000
  H   H72       1.0  0.16359156410945255  0.5907667989261325  0.2887109025587263  1.0000
  H   H73       1.0  0.6997058843150866  0.6254952009495228  0.35666926819545347  1.0000
  H   H74       1.0  0.6797298751168624  0.36326903398268945  0.07737813573246648  1.0000
  H   H75       1.0  0.9205799045828799  0.32043377725425864  0.2891782443856384  1.0000
  H   H76       1.0  0.7414622847902308  0.1691165769071077  0.09661751978573813  1.0000
  H   H77       1.0  0.8900823968911878  0.2368540108471464  0.1094943428418915  1.0000
  H   H78       1.0  0.7861471513940048  0.2730986517055455  0.9780171827811016  1.0000
  H   H79       1.0  0.7429900162077346  0.1457053369389314  0.9342818807624197  1.0000
  H   H80       1.0  0.635976954720931  0.2011892349808733  0.9634996471289624  1.0000
  H   H81       1.0  0.837114327594236  0.8397317767159861  0.5084639015473726  1.0000
  H   H82       1.0  0.9123058992971664  0.8628954695097375  0.6299743674856372  1.0000
  H   H83       1.0  0.9702754110724142  0.8092518894155489  0.5374650103216964  1.0000
  H   H84       1.0  0.7143247121009749  0.7629595281044388  0.6259160483663706  1.0000
  H   H85       1.0  0.5643126566410074  0.553778308029031  0.4494166169250774  1.0000
  H   H86       1.0  0.65315508639798  0.5843132959887427  0.5707805868569266  1.0000
  H   H87       1.0  0.5167619291456163  0.6115000660188413  0.5458258495108552  1.0000
  H   H88       1.0  0.5102885847247405  0.7365333724332074  0.4997984459593494  1.0000
  H   H89       1.0  0.6463945053034834  0.8207604945129532  0.5095134964834428  1.0000
  H   H90       1.0  0.5725876574608577  0.697945017019272  0.4092458642060491  1.0000
  H   H91       1.0  0.074191688367648  0.7311009542261075  0.37434758332456397  1.0000
  H   H92       1.0  0.31602579217100407  0.7140569199152155  0.6366020507834732  1.0000
  H   H93       1.0  0.5998621131740902  0.9687408281454991  0.6794766869789794  1.0000
  H   H94       1.0  0.571889259528177  0.9275506102039442  0.8307224488071369  1.0000
  H   H95       1.0  0.6528264302941904  0.8727459799392887  0.7629773374364105  1.0000
  H   H96       1.0  0.5128294011072824  0.7049511994443165  0.7267868298968452  1.0000
  H   H97       1.0  0.5970148356623283  0.7886777926082971  0.8541539371764699  1.0000
  H   H98       1.0  0.43449925221481317  0.7622829149112678  0.7987089746420183  1.0000
  H   H99       1.0  0.9975805390453375  0.6686992350090506  0.1601831626092292  1.0000
  H   H100      1.0  0.04977071937547344  0.7671160664539086  0.13710019378885346  1.0000
  H   H101      1.0  0.16124370940615756  0.7281980755028954  0.19070955707574194  1.0000
  H   H102      1.0  0.9516024576222363  0.8629867686323394  0.23704334801350052  1.0000
  H   H103      1.0  0.010931429457315255  0.8958441172198377  0.44625887245847906  1.0000
  H   H104      1.0  0.0692673654195913  0.9865883612001126  0.41560843261202507  1.0000
  H   H105      1.0  0.9057351581360249  0.9345546941164782  0.3886164433066312  1.0000
  H   H106      1.0  0.7740242897502014  0.7633657736373891  0.2636241268980655  1.0000
  H   H107      1.0  0.8258675904469043  0.6887767072434982  0.17937726538457333  1.0000
  H   H108      1.0  0.8748765443508121  0.7113881245688843  0.3021691290291598  1.0000
  C   C1        1.0  0.5313704085168068  0.1943928088740563  0.6740321189569727  1.0000
  C   C2        1.0  0.5238712037853331  0.3259465400498343  0.8349690476972  1.0000
  C   C3        1.0  0.4951706009579979  0.22857637116983645  0.762720564577961  1.0000
  C   C4        1.0  0.4210717555058565  0.1520822612415742  0.770702897153619  1.0000
  C   C5        1.0  0.3775264029446318  0.17014294441123912  0.8459335758851693  1.0000
  C   C6        1.0  0.4070865868296494  0.26912231237150047  0.911628124853074  1.0000
  C   C7        1.0  0.29880438213427857  0.09115413208308347  0.8584833258455403  1.0000
  C   C8        1.0  0.2501316364982669  0.9862559291736871  0.7736881321884608  1.0000
  C   C9        1.0  0.6013476370147046  0.4184150447378414  0.8442186045608011  1.0000
  C   C10       1.0  0.7262865716069625  0.5246838949591393  0.8145794985778211  1.0000
  C   C11       1.0  0.7014950238586694  0.5770727935408148  0.9080133779923187  1.0000
  C   C12       1.0  0.6662864408926978  0.5518124184679607  0.7394158458372287  1.0000
  C   C13       1.0  0.8682711701506703  0.5469984979281364  0.8367102480485895  1.0000
  C   C14       1.0  0.928103218139924  0.5279037857318798  0.9182279778131885  1.0000
  C   C15       1.0  0.8894386526624488  0.4884742656679322  0.7443942527122402  1.0000
  C   C16       1.0  0.3372033648175544  0.4801148684658472  0.8057756137605095  1.0000
  C   C17       1.0  0.19806904261329805  0.5093392377435535  0.6742215048420093  1.0000
  C   C18       1.0  0.2667968314957249  0.5345784798513407  0.771599558795387  1.0000
  C   C19       1.0  0.26919163959272646  0.6190818598144787  0.8480300128068378  1.0000
  C   C20       1.0  0.2075208410912167  0.6762256992274374  0.8299816217964775  1.0000
  C   C21       1.0  0.13804439683102723  0.6428039902131243  0.7309949064647154  1.0000
  C   C22       1.0  0.2077882993849442  0.7677897186901745  0.9089570454909646  1.0000
  C   C23       1.0  0.2639876749969048  0.7879160841921973  0.013830210484577775  1.0000
  C   C24       1.0  0.18307599697669014  0.4260305084688908  0.581772850473385  1.0000
  C   C25       1.0  0.2018579117215822  0.2901360798125765  0.4755267035776355  1.0000
  C   C26       1.0  0.12469642387928549  0.33115908864628085  0.4231576346064613  1.0000
  C   C27       1.0  0.11481726836630196  0.18775074509855466  0.4483149497452317  1.0000
  C   C28       1.0  0.32156792115367944  0.2900654275605064  0.45323314196954095  1.0000
  C   C29       1.0  0.40053687685440315  0.39081023135372567  0.472584704678134  1.0000
  C   C30       1.0  0.4011817267289572  0.25606842544306113  0.5115032288013808  1.0000
  C   C31       1.0  0.8573295473866552  0.325763885255668  0.5200789129552206  1.0000
  C   C32       1.0  0.6888918331093025  0.16489335844723027  0.4907404700820877  1.0000
  C   C33       1.0  0.7324868149187225  0.23706315718788318  0.465537237536921  1.0000
  C   C34       1.0  0.6504549897382361  0.22897137799311199  0.38102107442193045  1.0000
  C   C35       1.0  0.5316831217182453  0.15378468303276802  0.32390348428192073  1.0000
  C   C36       1.0  0.4955170808343539  0.0881912245786438  0.3572765880609196  1.0000
  C   C37       1.0  0.44039106822267376  0.1411385279740429  0.23235635594352996  1.0000
  C   C38       1.0  0.47636903473652137  0.22589135467771368  0.21220735079672437  1.0000
  C   C39       1.0  0.7570350270271291  0.15577607244676978  0.5740540462095609  1.0000
  C   C40       1.0  0.9115371885118789  0.18540803121689453  0.7099492151693594  1.0000
  C   C41       1.0  0.7932966049754029  0.09203567827740501  0.6689154625806992  1.0000
  C   C42       1.0  0.9268460116354406  0.2605849957081716  0.8123170578744591  1.0000
  C   C43       1.0  0.03125300584989078  0.1631090071979031  0.7099279878306886  1.0000
  C   C44       1.0  0.009342120852735994  0.08162293601973401  0.6091794513081724  1.0000
  C   C45       1.0  0.14487962086301553  0.2553627478250462  0.7438210239254416  1.0000
  C   C46       1.0  0.4686272371183405  0.8056116921377948  0.3259716791350229  1.0000
  C   C47       1.0  0.4761301557177403  0.6740601632715408  0.16502768661525372  1.0000
  C   C48       1.0  0.5048281824668662  0.7714251920861414  0.23728099763629718  1.0000
  C   C49       1.0  0.578936311001513  0.8479222390784215  0.2293027650897414  1.0000
  C   C50       1.0  0.6224780594164299  0.8298630246247709  0.1540677283260833  1.0000
  C   C51       1.0  0.5929029821068426  0.7308851261300404  0.08836680182876935  1.0000
  C   C52       1.0  0.7011990771289118  0.9088533058596937  0.14151901863161231  1.0000
  C   C53       1.0  0.7498728248203933  0.013750039953251303  0.22631440508783376  1.0000
  C   C54       1.0  0.39865142309069046  0.5815835801834124  0.15577193497447428  1.0000
  C   C55       1.0  0.273724976342514  0.4753206044482781  0.185417537061511  1.0000
  C   C56       1.0  0.2985031720103136  0.42292583107438014  0.09197207393684438  1.0000
  C   C57       1.0  0.3337245059496539  0.44818914348074657  0.2605811093625547  1.0000
  C   C58       1.0  0.13173963939382102  0.4530045330970012  0.1632909854256397  1.0000
  C   C59       1.0  0.07190645309364638  0.4721021830945986  0.08177610807130967  1.0000
  C   C60       1.0  0.11057252347853101  0.5115294997756621  0.2556079645071491  1.0000
  C   C61       1.0  0.6627637036477906  0.519882289330333  0.19420243357021147  1.0000
  C   C62       1.0  0.8019168915830192  0.4906557161531566  0.3257664121978222  1.0000
  C   C63       1.0  0.7331956177757419  0.4654260202788976  0.22838666084287942  1.0000
  C   C64       1.0  0.7308060211572566  0.3809226398789035  0.1519559058420653  1.0000
  C   C65       1.0  0.7924729768322007  0.32377806650543306  0.1700057743860839  1.0000
  C   C66       1.0  0.8619406679168691  0.3571909638321743  0.26899408829420685  1.0000
  C   C67       1.0  0.7922103592509017  0.2322133125510959  0.09103399821724875  1.0000
  C   C68       1.0  0.736012756366442  0.2120818061043579  0.986158422932391  1.0000
  C   C69       1.0  0.8169084640580805  0.5739615083450147  0.4182191465085835  1.0000
  C   C70       1.0  0.7981458502347677  0.7098632798299035  0.5244736113552975  1.0000
  C   C71       1.0  0.8752825309114202  0.6688219125272212  0.5768282376534514  1.0000
  C   C72       1.0  0.8851861249087632  0.812247880307318  0.5516868475726255  1.0000
  C   C73       1.0  0.678434705097757  0.7099368696559903  0.5467669427110521  1.0000
  C   C74       1.0  0.5994638768507341  0.6091935349181127  0.5274174979874573  1.0000
  C   C75       1.0  0.5988219982695283  0.7439360751197484  0.48850104017972734  1.0000
  C   C76       1.0  0.1426392974071857  0.6742229935851964  0.4799322281174056  1.0000
  C   C77       1.0  0.3111131316920889  0.8350927823716104  0.5092601819296049  1.0000
  C   C78       1.0  0.2675076323188604  0.7629193121606618  0.5344575588220478  1.0000
  C   C79       1.0  0.34954379223262305  0.7710110917036557  0.6189831301220534  1.0000
  C   C80       1.0  0.46830968487767416  0.8462014586386958  0.6760956094190362  1.0000
  C   C81       1.0  0.5044776908298303  0.9117971205633353  0.6427293114165805  1.0000
  C   C82       1.0  0.5596055416359391  0.8588534888055933  0.7676482969345456  1.0000
  C   C83       1.0  0.5236342529865395  0.7741035993389075  0.7878009360726209  1.0000
  C   C84       1.0  0.2429756120196415  0.8442144745612835  0.4259518965918189  1.0000
  C   C85       1.0  0.08846833835395532  0.814586188162835  0.2900579374601477  1.0000
  C   C86       1.0  0.20671717065041395  0.9079680874933374  0.3310940025342574  1.0000
  C   C87       1.0  0.07315948609055296  0.7394143639099295  0.18768480081541114  1.0000
  C   C88       1.0  0.9687611389784151  0.8368954927639791  0.29007937836681924  1.0000
  C   C89       1.0  0.9906658473994552  0.9183778922745133  0.39082406903138167  1.0000
  C   C90       1.0  0.8551321527366721  0.74464395539551  0.2561855894611396  1.0000
  N   N1        1.0  0.4761340125903857  0.3429937800167623  0.9055978995506067  1.0000
  N   N2        1.0  0.6226057386500797  0.5070564625024259  0.9188305835250218  1.0000
  N   N3        1.0  0.6565590769359702  0.4226773204200072  0.7837228355363379  1.0000
  N   N4        1.0  0.13323653706462574  0.5628981828955091  0.65717290642025  1.0000
  N   N5        1.0  0.11573925938147053  0.41196972525363407  0.4931545047730167  1.0000
  N   N6        1.0  0.23401783735425133  0.3612814254821756  0.5775263392132715  1.0000
  N   N7        1.0  0.5705529444179476  0.0942827826392545  0.4371793755171183  1.0000
  N   N8        1.0  0.70367167924379  0.08120408810211899  0.5881034887757223  1.0000
  N   N9        1.0  0.8727120105014876  0.21631426426372974  0.6388561821625558  1.0000
  N   N10       1.0  0.5238581657337704  0.6570136579480916  0.0943925609089077  1.0000
  N   N11       1.0  0.37738387349870106  0.49294583453320934  0.08115299071840096  1.0000
  N   N12       1.0  0.3434520072042416  0.5773227724522697  0.21626984138899266  1.0000
  N   N13       1.0  0.8667378676095865  0.43709456921057205  0.342820676285605  1.0000
  N   N14       1.0  0.884234712186938  0.5880134799425392  0.5068381635609001  1.0000
  N   N15       1.0  0.7659820531568897  0.6387223403926824  0.4224695427811652  1.0000
  N   N16       1.0  0.4294447720057303  0.9057114368047292  0.5628202136736602  1.0000
  N   N17       1.0  0.29633868989807866  0.918789396649622  0.4119054617818632  1.0000
  N   N18       1.0  0.127296994158037  0.7836799545216734  0.3611466595905667  1.0000
  O   O1        1.0  0.4580634057014306  0.10833057441111289  0.6037968499152271  1.0000
  O   O2        1.0  0.6285099233943611  0.2480767027297546  0.673856790357803  1.0000
  O   O3        1.0  0.7440606472270445  0.6670585526842032  0.961701251794814  1.0000
  O   O4        1.0  0.34993493459681696  0.4959144003995561  0.8918101847394408  1.0000
  O   O5        1.0  0.3807090099499959  0.4262784846147909  0.7520568888265657  1.0000
  O   O6        1.0  0.07733709435870398  0.2948729552468592  0.3331863656350862  1.0000
  O   O7        1.0  0.854280056303267  0.39601035252788824  0.5042653671551989  1.0000
  O   O8        1.0  0.954618014080488  0.32596427129544736  0.573978683328221  1.0000
  O   O9        1.0  0.7821037529687872  0.0383542174233256  0.7052287422208892  1.0000
  O   O10       1.0  0.5419209585321596  0.8916768639362401  0.39619036283320946  1.0000
  O   O11       1.0  0.3715001383635296  0.7519248607314635  0.3261597385366952  1.0000
  O   O12       1.0  0.255928459984986  0.33294447910032693  0.03828685004293669  1.0000
  O   O13       1.0  0.6500062455196626  0.5040761500387845  0.10816730054066429  1.0000
  O   O14       1.0  0.6192644716869041  0.5737245477074212  0.24792163492642058  1.0000
  O   O15       1.0  0.9226332351727109  0.7050977659809945  0.6668079245121135  1.0000
  O   O16       1.0  0.1456706240496786  0.6039992955182784  0.4957746874502221  1.0000
  O   O17       1.0  0.04535782221618928  0.674017465527349  0.42602111500852397  1.0000
  O   O18       1.0  0.21790623070374682  0.9616576282422572  0.2948006270301207  1.0000
