data_image0
_chemical_formula_structural       Cd2H28Pd2C20N16
_chemical_formula_sum              "Cd2 H28 Pd2 C20 N16"
_cell_length_a       8.668182814934275
_cell_length_b       8.773325644325247
_cell_length_c       11.548929185169474
_cell_angle_alpha    74.60486933157102
_cell_angle_beta     73.81123112562749
_cell_angle_gamma    69.17757921395442

_space_group_name_H-M_alt    "P 1"
_space_group_IT_number       1

loop_
  _space_group_symop_operation_xyz
  'x, y, z'

loop_
  _atom_site_type_symbol
  _atom_site_label
  _atom_site_symmetry_multiplicity
  _atom_site_fract_x
  _atom_site_fract_y
  _atom_site_fract_z
  _atom_site_occupancy
  Cd  Cd1       1.0  0.33975260128809753  0.6477466562882906  0.27037163345610804  1.0000
  Cd  Cd2       1.0  0.6602463047921817  0.3522534358008825  0.7296278850070836  1.0000
  H   H1        1.0  0.07517751586845392  0.9211416940680548  0.3748214654900794  1.0000
  H   H2        1.0  0.9248225827541887  0.07885840398255076  0.6251786730324512  1.0000
  H   H3        1.0  0.17527531486354772  0.0010317097841863  0.24139872303531723  1.0000
  H   H4        1.0  0.8247263756864458  0.9989671585848966  0.7586013316796498  1.0000
  H   H5        1.0  0.10548282142182343  0.6192740044924104  0.4995990729422744  1.0000
  H   H6        1.0  0.8945184697431898  0.3807260995196201  0.500401685639588  1.0000
  H   H7        1.0  0.2930025691187197  0.48421564928111127  0.5197136057488765  1.0000
  H   H8        1.0  0.7070011175291951  0.5157844771778242  0.480286656934581  1.0000
  H   H9        1.0  0.17389171992971345  0.4360499172933812  0.455474606576317  1.0000
  H   H10       1.0  0.8261107637776633  0.5639501926800888  0.5445267720648843  1.0000
  H   H11       1.0  0.4543302627301885  0.700366668219942  0.01485900317649684  1.0000
  H   H12       1.0  0.545670644647089  0.2996346872211077  0.9851398552466506  1.0000
  H   H13       1.0  0.3677314527949562  0.8889404237359598  0.047755295779381916  1.0000
  H   H14       1.0  0.6322706471246847  0.11106093766651526  0.9522441827031048  1.0000
  H   H15       1.0  0.56425732197296  0.7834963966296724  0.061110847516786755  1.0000
  H   H16       1.0  0.4357439691920533  0.2165037073823654  0.9388899110650756  1.0000
  H   H17       1.0  0.42786279440215946  0.28304168626091547  0.20472631741564842  1.0000
  H   H18       1.0  0.5721357122931394  0.716959641471213  0.7952739049144386  1.0000
  H   H19       1.0  0.6598456962509899  0.015198340154626094  0.1871060599433322  1.0000
  H   H20       1.0  0.340152810444309  0.9848029875775094  0.8128941623867547  1.0000
  H   H21       1.0  0.9716097057379116  0.227672881154163  0.28934768523192406  1.0000
  H   H22       1.0  0.028392010393986374  0.772329731677331  0.7106498930918478  1.0000
  H   H23       1.0  0.7334394915342345  0.489224896645652  0.2901145137428713  1.0000
  H   H24       1.0  0.26655901516106434  0.5107764310864835  0.7098857085872226  1.0000
  H   H25       1.0  0.9225606636119889  0.8329114707246175  0.27139281295507817  1.0000
  H   H26       1.0  0.07743783788421871  0.16708985174550148  0.7286082773835503  1.0000
  H   H27       1.0  0.02548882720390123  0.9255750278751617  0.13128639335518952  1.0000
  H   H28       1.0  0.9745100736772943  0.07442505895199497  0.8687139931165432  1.0000
  Pd  Pd1       1.0  4.6082712402282995e-07  0.5000006416634405  0.9999999257467709  1.0000
  Pd  Pd2       1.0  0.4999997013838139  0.9999994332982991  0.5000012751074153  1.0000
  C   C1        1.0  0.13586614327484628  0.26327880036005524  0.008995921781803421  1.0000
  C   C2        1.0  0.8641343543192761  0.7367237801999166  0.9910053765253227  1.0000
  C   C3        1.0  0.12481511422843283  0.5292420387559388  0.10755294321244695  1.0000
  C   C4        1.0  0.8751841960224032  0.47076054110461724  0.8924468670268056  1.0000
  C   C5        1.0  0.5014571772147535  0.8248925721656802  0.42149031706432544  1.0000
  C   C6        1.0  0.4985417088962195  0.1751000625707775  0.5785089461300218  1.0000
  C   C7        1.0  0.2653984118654762  0.11997873360814278  0.47559220609737474  1.0000
  C   C8        1.0  0.7345873806208377  0.8800287344719632  0.5244033510075711  1.0000
  C   C9        1.0  0.5523551787716416  0.2660016521179357  0.21965258561684925  1.0000
  C   C10       1.0  0.4476437169104771  0.7339984294472044  0.780348668863418  1.0000
  C   C11       1.0  0.6810385063746835  0.1169294273031554  0.21156033290704104  1.0000
  C   C12       1.0  0.3189615922479591  0.8830706707474503  0.7884398056154895  1.0000
  C   C13       1.0  0.8369371584932139  0.09798757196320908  0.23623613196443227  1.0000
  C   C14       1.0  0.16306134820207763  0.9020137557689268  0.7637640903656547  1.0000
  C   C15       1.0  0.8553622159049965  0.23361331597055104  0.2667126984551232  1.0000
  C   C16       1.0  0.14463629598938618  0.7663880170236012  0.7332866558664295  1.0000
  C   C17       1.0  0.7213921132765222  0.37999614843341306  0.26960856311513487  1.0000
  C   C18       1.0  0.2786075911602169  0.6200051905221711  0.7303914112657567  1.0000
  C   C19       1.0  0.9761562714867936  0.9357541066730161  0.22858820064852398  1.0000
  C   C20       1.0  0.023843827135849004  0.06424599137758949  0.7714119378739994  1.0000
  N   N1        1.0  0.2179108652805085  0.12341281375981335  0.014837013974862113  1.0000
  N   N2        1.0  0.7820896375126906  0.8765897720621821  0.9851634163237296  1.0000
  N   N3        1.0  0.197224290508622  0.547719382934133  0.17197294444886788  1.0000
  N   N4        1.0  0.802775014543137  0.45228319166440656  0.8280277337989262  1.0000
  N   N5        1.0  0.5012013548600863  0.7234951984191368  0.3727268365255015  1.0000
  N   N6        1.0  0.498797520852726  0.2764974257932805  0.6272741626859288  1.0000
  N   N7        1.0  0.1264456028397021  0.19120126025330103  0.4624481391783918  1.0000
  N   N8        1.0  0.8735684389278691  0.8087927402448826  0.5375512085688501  1.0000
  N   N9        1.0  0.5713719273082632  0.3968289927558501  0.2478206255615092  1.0000
  N   N10       1.0  0.4286265741879449  0.6031723297142617  0.7521804647771194  1.0000
  N   N11       1.0  0.11810598074637836  0.9111517295564935  0.284235604603552  1.0000
  N   N12       1.0  0.8818941178762714  0.08884836849411218  0.7157645339189787  1.0000
  N   N13       1.0  0.20983262170567948  0.532229419633566  0.46199477188270077  1.0000
  N   N14       1.0  0.7901682804725141  0.4677719305454671  0.5380049545489882  1.0000
  N   N15       1.0  0.44676565058826173  0.7721825506313066  0.07396507335194272  1.0000
  N   N16       1.0  0.5532352567890159  0.2278188048097433  0.9260337850712049  1.0000
