data_image0
_chemical_formula_structural       Zn2H8C44Br4N2Cl8O8
_chemical_formula_sum              "Zn2 H8 C44 Br4 N2 Cl8 O8"
_cell_length_a       14.41311034241907
_cell_length_b       15.487046584434777
_cell_length_c       15.840834196731384
_cell_angle_alpha    79.15585493797937
_cell_angle_beta     87.20370766395551
_cell_angle_gamma    73.95700865116889

_space_group_name_H-M_alt    "P 1"
_space_group_IT_number       1

loop_
  _space_group_symop_operation_xyz
  'x, y, z'

loop_
  _atom_site_type_symbol
  _atom_site_label
  _atom_site_symmetry_multiplicity
  _atom_site_fract_x
  _atom_site_fract_y
  _atom_site_fract_z
  _atom_site_occupancy
  Zn  Zn1       1.0  0.4740339826479952  0.5984662016894122  0.512284216968169  1.0000
  Zn  Zn2       1.0  0.5259587198835902  0.401543534575609  0.48771689301695176  1.0000
  H   H1        1.0  0.48966553915721533  0.7390193635771071  0.9447597830188812  1.0000
  H   H2        1.0  0.5102686288965687  0.2609916014450704  0.05523288328937782  1.0000
  H   H3        1.0  0.6617665439813154  0.8525883673505988  0.5037171727198099  1.0000
  H   H4        1.0  0.33819910197559  0.14740263159646363  0.496297988161345  1.0000
  H   H5        1.0  0.4997976401946432  0.2725378078108066  0.7520977861612436  1.0000
  H   H6        1.0  0.5001893953135621  0.727470106102956  0.2478974900484374  1.0000
  H   H7        1.0  0.48745085327404075  0.6314460666749184  0.8517267615063417  1.0000
  H   H8        1.0  0.5125078555993382  0.36855071455832444  0.1482756700500261  1.0000
  C   C1        1.0  0.47781183759086315  0.5735602005325477  0.34006884227949996  1.0000
  C   C2        1.0  0.5061763043083688  0.39274255966188326  0.07945287578436218  1.0000
  C   C3        1.0  0.49288648617180547  0.6683939516330498  0.9726413012523735  1.0000
  C   C4        1.0  0.5070627602310651  0.33160990045421107  0.0273545832672468  1.0000
  C   C5        1.0  0.6658412193750536  0.1510914325029091  0.3856615798826652  1.0000
  C   C6        1.0  0.334148572067285  0.8488932965084431  0.6143386918948011  1.0000
  C   C7        1.0  0.6227297869527462  0.2421787982996265  0.39182896006278867  1.0000
  C   C8        1.0  0.3772664322331425  0.7578106442365924  0.6081665420197097  1.0000
  C   C9        1.0  0.5094255125010249  0.2030866543341432  0.4888030066560276  1.0000
  C   C10       1.0  0.49055353439469934  0.7969025884532644  0.5111836030549097  1.0000
  C   C11       1.0  0.5355109017949362  0.11119589261586782  0.4742882806348731  1.0000
  C   C12       1.0  0.5221907079531151  0.42643656046175954  0.659927778393559  1.0000
  C   C13       1.0  0.46446042878914556  0.888793418084518  0.5257023518781166  1.0000
  C   C14       1.0  0.6280656183681401  0.0818893516932278  0.4351844240476268  1.0000
  C   C15       1.0  0.37190642287725956  0.9180999695426452  0.5648049212677079  1.0000
  C   C16       1.0  0.6834237270657583  0.48594707463052345  0.4971533850065554  1.0000
  C   C17       1.0  0.3165617969641303  0.5140910736043978  0.5028577945049477  1.0000
  C   C18       1.0  0.47839967355606916  0.047156028031651004  0.4990419011747419  1.0000
  C   C19       1.0  0.5215703614863755  0.9528362800883484  0.5009343871816867  1.0000
  C   C20       1.0  0.622635711639198  0.9241558552558403  0.48613105897342723  1.0000
  C   C21       1.0  0.37733511129525965  0.07583279630962642  0.5138590668664235  1.0000
  C   C22       1.0  0.6736362546837853  0.9852947318122177  0.45238198618066144  1.0000
  C   C23       1.0  0.48285781535533806  0.5543482678390745  0.10091573757123476  1.0000
  C   C24       1.0  0.32633904262641533  0.014692329648440203  0.54761646795275  1.0000
  C   C25       1.0  0.7835679544115096  0.4864987871207234  0.4976521076236152  1.0000
  C   C26       1.0  0.21642352168578333  0.513540684206177  0.5023548759901287  1.0000
  C   C27       1.0  0.8671100478731548  0.4913065221317226  0.49847259787166104  1.0000
  C   C28       1.0  0.1328798873717076  0.5087180098508314  0.5015375278521574  1.0000
  C   C29       1.0  0.9582209843928311  0.49700670304912364  0.4994874863413727  1.0000
  C   C30       1.0  0.04177839457379663  0.503003373612799  0.5005253523753694  1.0000
  C   C31       1.0  0.47503723365008466  0.59775038893455  0.24349930636394382  1.0000
  C   C32       1.0  0.5249492820107234  0.40225405413239923  0.7565009783057803  1.0000
  C   C33       1.0  0.4974160123929678  0.705298502131065  0.11800331671810226  1.0000
  C   C34       1.0  0.5171193215576367  0.4456522404760862  0.8990867566059535  1.0000
  C   C35       1.0  0.5025469855072372  0.2947057382693857  0.8819945921728872  1.0000
  C   C36       1.0  0.4931729373977518  0.681406472667142  0.20599088263537618  1.0000
  C   C37       1.0  0.5068074799755706  0.31859739929659997  0.7940096900935456  1.0000
  C   C38       1.0  0.46140703219639795  0.5392509006509912  0.190689418745265  1.0000
  C   C39       1.0  0.5385749207461571  0.4607549716929143  0.8093114069565458  1.0000
  C   C40       1.0  0.4931363632336955  0.6433046914575585  0.06362994480034698  1.0000
  C   C41       1.0  0.506822560244757  0.3567043916281349  0.9363666642789993  1.0000
  C   C42       1.0  0.49587347012623445  0.48699724209726003  0.0453716110526301  1.0000
  C   C43       1.0  0.5040914188851602  0.513007609582843  0.9546280312557441  1.0000
  C   C44       1.0  0.4937861417709541  0.607260941189722  0.9205489610963083  1.0000
  Br  Br1       1.0  0.8093977441727489  0.9360786711580503  0.44576284543801836  1.0000
  Br  Br2       1.0  0.1905823147291343  0.0639042685265778  0.5542708650628896  1.0000
  Br  Br3       1.0  0.5793683829074753  0.7639618047106111  0.4231488529187502  1.0000
  Br  Br4       1.0  0.4205931041826503  0.23603135872646422  0.5768263035057899  1.0000
  N   N1        1.0  0.5519833381825237  0.2662197661826582  0.45017224893563684  1.0000
  N   N2        1.0  0.4480063640721355  0.7337703794738175  0.5498283959941758  1.0000
  Cl  Cl1       1.0  0.5969150968343655  0.5428024693648938  0.7647699340176001  1.0000
  Cl  Cl2       1.0  0.4030751573001511  0.4572003271109466  0.23524250023638157  1.0000
  Cl  Cl3       1.0  0.5098879396884044  0.8129339859877337  0.07418351030398897  1.0000
  Cl  Cl4       1.0  0.4900764025445313  0.18707850384069502  0.9258066822108544  1.0000
  Cl  Cl5       1.0  0.34047710455759267  0.6731637470647913  0.6730203732667448  1.0000
  Cl  Cl6       1.0  0.6595394929244094  0.3268207548068958  0.3270024462781365  1.0000
  Cl  Cl7       1.0  0.7559507308895734  0.12686724673112346  0.3123720410313737  1.0000
  Cl  Cl8       1.0  0.244041396393591  0.8731112878142611  0.6876310714556269  1.0000
  O   O1        1.0  0.4566322932312303  0.6392054518147958  0.38177161946656907  1.0000
  O   O2        1.0  0.5433363030665819  0.3607829958286715  0.6182318708151655  1.0000
  O   O3        1.0  0.5075510090431693  0.48938319264163255  0.37215234869950103  1.0000
  O   O4        1.0  0.49247990833386274  0.5106118539706374  0.6278354435237501  1.0000
  O   O5        1.0  0.622898705751787  0.5612717665435059  0.5055229004731245  1.0000
  O   O6        1.0  0.3770895895802795  0.4387728911475365  0.4944631239567555  1.0000
  O   O7        1.0  0.6663933752449295  0.41189544019677277  0.4883192587900638  1.0000
  O   O8        1.0  0.33359447266879266  0.5881382631272843  0.5117102592644045  1.0000
