data_image0
_chemical_formula_structural       Zn4H48C76N4O16
_chemical_formula_sum              "Zn4 H48 C76 N4 O16"
_cell_length_a       13.95475258994259
_cell_length_b       15.356482620258905
_cell_length_c       15.322639195872766
_cell_angle_alpha    88.16285108801972
_cell_angle_beta     85.62536589651091
_cell_angle_gamma    85.2532930770993

_space_group_name_H-M_alt    "P 1"
_space_group_IT_number       1

loop_
  _space_group_symop_operation_xyz
  'x, y, z'

loop_
  _atom_site_type_symbol
  _atom_site_label
  _atom_site_symmetry_multiplicity
  _atom_site_fract_x
  _atom_site_fract_y
  _atom_site_fract_z
  _atom_site_occupancy
  Zn  Zn1       1.0  0.8914182331190689  0.8365436434049016  0.5997524602552244  1.0000
  Zn  Zn2       1.0  0.6884703354405701  0.8511704263713397  0.613917491294792  1.0000
  Zn  Zn3       1.0  0.1085816450622801  0.16345791635970386  0.4002453822840194  1.0000
  Zn  Zn4       1.0  0.31152971490712394  0.14882916939864543  0.3860823572322473  1.0000
  H   H1        1.0  0.9271200131573283  0.7629631112180988  0.8740850478450424  1.0000
  H   H2        1.0  0.9282942637967154  0.7571134741958048  0.036483771275435076  1.0000
  H   H3        1.0  0.6436545792873504  0.8911734257057232  0.05591521039507796  1.0000
  H   H4        1.0  0.6355671456187935  0.8199545475145624  0.1822852431069534  1.0000
  H   H5        1.0  0.6418935753124585  0.8910258529679426  0.8937310414139644  1.0000
  H   H6        1.0  0.6405467175841508  0.8312752900905024  0.34333655078307856  1.0000
  H   H7        1.0  0.9470770307180844  0.8445586625844117  0.31242688932905327  1.0000
  H   H8        1.0  0.9435265478062577  0.8361152049307279  0.1516448831964609  1.0000
  H   H9        1.0  0.936326059719491  0.1068237984657401  0.6103666944619872  1.0000
  H   H10       1.0  0.6274891295707193  0.13906770670578084  0.6144571135558647  1.0000
  H   H11       1.0  0.6331027325685952  0.3001915560394933  0.6137778564894276  1.0000
  H   H12       1.0  0.9435948571142418  0.2665083161264051  0.6125391675182781  1.0000
  H   H13       1.0  0.9319284852548791  0.3902900218356393  0.5394019986496659  1.0000
  H   H14       1.0  0.9368814484928409  0.5517637810791882  0.5369495201421797  1.0000
  H   H15       1.0  0.02739406512509393  0.974825152963568  0.6045276625812619  1.0000
  H   H16       1.0  0.05808196799707592  0.7047713910688173  0.6025858279068926  1.0000
  H   H17       1.0  0.23655145157462704  0.701604625679778  0.6054516305403081  1.0000
  H   H18       1.0  0.20308717502958737  0.984436235686779  0.6137581015528822  1.0000
  H   H19       1.0  0.36835119220104673  0.7126685845896786  0.6645535369891531  1.0000
  H   H20       1.0  0.34799991637122213  0.979961291268232  0.5631549918510572  1.0000
  H   H21       1.0  0.546475526633877  0.7215994447516891  0.6625285272334835  1.0000
  H   H22       1.0  0.5254101056925079  0.9787901612015942  0.5744285622780794  1.0000
  H   H23       1.0  0.6595169650302851  0.5781099689840588  0.6786324597392692  1.0000
  H   H24       1.0  0.6550970220849097  0.4168327115064229  0.6858210097845044  1.0000
  H   H25       1.0  0.0728814164940488  0.23703713817557304  0.1259146863118019  1.0000
  H   H26       1.0  0.07170650524731312  0.24288612156074413  0.9635160280432373  1.0000
  H   H27       1.0  0.356346133068108  0.1088268257300058  0.9440832675518607  1.0000
  H   H28       1.0  0.3644324190887147  0.1800424346809351  0.8177140657331774  1.0000
  H   H29       1.0  0.35810785503912257  0.1089743974400363  0.10626804003373988  1.0000
  H   H30       1.0  0.35945296330133664  0.1687203848038834  0.6566627899639811  1.0000
  H   H31       1.0  0.052920745962218484  0.15544223849838096  0.687574380334439  1.0000
  H   H32       1.0  0.056471832792823314  0.16388700546837506  0.8483549999334625  1.0000
  H   H33       1.0  0.06367249444634379  0.8931764499673707  0.3896338892374657  1.0000
  H   H34       1.0  0.3725099109354986  0.8609351563161239  0.38554335712136373  1.0000
  H   H35       1.0  0.3668985809048096  0.6998100006552975  0.3862218457604881  1.0000
  H   H36       1.0  0.0564051358446704  0.7334919343084536  0.3874600123461675  1.0000
  H   H37       1.0  0.06807366239262082  0.6097102265302751  0.4605983390079443  1.0000
  H   H38       1.0  0.06312141995161369  0.4482364703162318  0.4630488101796502  1.0000
  H   H39       1.0  0.9726071370717763  0.025177718132532303  0.3954674387977731  1.0000
  H   H40       1.0  0.9419149724085116  0.29523081529990947  0.3974167644763113  1.0000
  H   H41       1.0  0.7634464342815903  0.29839495795875587  0.39455619812147796  1.0000
  H   H42       1.0  0.7969148039526035  0.0155659817453255  0.3862369665712463  1.0000
  H   H43       1.0  0.6316480148698674  0.2873323063231012  0.33545416134896283  1.0000
  H   H44       1.0  0.6520021039728975  0.020032435820233705  0.4368357639125121  1.0000
  H   H45       1.0  0.4535229582396809  0.2784014411029503  0.33748248385868607  1.0000
  H   H46       1.0  0.4745917389842376  0.021205524809921897  0.42556345104337356  1.0000
  H   H47       1.0  0.3404865052323274  0.4218915886847227  0.32136644217640503  1.0000
  H   H48       1.0  0.3449042339997065  0.5831694998532342  0.3141780238028105  1.0000
  C   C1        1.0  0.7852245274637542  0.8334778144119069  0.7763374733472331  1.0000
  C   C2        1.0  0.784786746679565  0.82795184836214  0.8741211360678631  1.0000
  C   C3        1.0  0.8652965762517297  0.7903272878777159  0.9149485857541106  1.0000
  C   C4        1.0  0.8657991933495525  0.7881741334787475  0.005731423017913076  1.0000
  C   C5        1.0  0.7054507372272241  0.861166649888112  0.016748724358635114  1.0000
  C   C6        1.0  0.7954779194051228  0.8458613174261558  0.4352439950922217  1.0000
  C   C7        1.0  0.7938436453201306  0.839304472743855  0.3380600383291678  1.0000
  C   C8        1.0  0.7040860762894781  0.8266812980500121  0.21018139048035067  1.0000
  C   C9        1.0  0.7042852697486099  0.8621817997625669  0.9260544557894048  1.0000
  C   C10       1.0  0.7063367053275798  0.8325443990616465  0.3003298289215904  1.0000
  C   C11       1.0  0.8790518607687472  0.8393997966683103  0.2833233400408019  1.0000
  C   C12       1.0  0.8766968698309086  0.8337655570843624  0.1931222058262563  1.0000
  C   C13       1.0  0.7891431580623518  0.8277212387333394  0.15452691294895965  1.0000
  C   C14       1.0  0.7865489379277549  0.8248661996303711  0.05844770201577625  1.0000
  C   C15       1.0  0.7785740751483063  0.015419519866604496  0.6098052707907371  1.0000
  C   C16       1.0  0.7813931699324358  0.11246829197850161  0.6132661883948884  1.0000
  C   C17       1.0  0.8699051149973157  0.1494955085396583  0.6126239912302438  1.0000
  C   C18       1.0  0.6962569961782636  0.1678642828584742  0.6147409705559638  1.0000
  C   C19       1.0  0.6999032233983372  0.2580614823406933  0.6149918184321094  1.0000
  C   C20       1.0  0.8736477450700164  0.2395690204056393  0.6129659886308614  1.0000
  C   C21       1.0  0.7886439863701966  0.29576260883595035  0.6138918065421277  1.0000
  C   C22       1.0  0.7924896730626045  0.39149798985454254  0.6119774393058036  1.0000
  C   C23       1.0  0.8721487132504964  0.43104163552507657  0.570833801604209  1.0000
  C   C24       1.0  0.8751210507604411  0.5214450189467569  0.5688468238863605  1.0000
  C   C25       1.0  0.7981071124074505  0.5751609642799591  0.6068358543236696  1.0000
  C   C26       1.0  0.07695307718912399  0.9162399392299106  0.6060572741014096  1.0000
  C   C27       1.0  0.09434997968018875  0.7648624307911903  0.6047326541273037  1.0000
  C   C28       1.0  0.19352860285400916  0.7640315048235636  0.6077971967375289  1.0000
  C   C29       1.0  0.2363452497450069  0.8433523165836758  0.6108959030745139  1.0000
  C   C30       1.0  0.17528539979284122  0.9206261733981121  0.6104662594748475  1.0000
  C   C31       1.0  0.3416120522873385  0.8458713159482373  0.613806919786505  1.0000
  C   C32       1.0  0.3995622076366275  0.7728513945317133  0.6421244335682345  1.0000
  C   C33       1.0  0.3876915867892593  0.9215701591078796  0.5882172409322166  1.0000
  C   C34       1.0  0.4984924244557051  0.7771463370972357  0.642561862432167  1.0000
  C   C35       1.0  0.486761931184006  0.9211614621263777  0.5921371422602559  1.0000
  C   C36       1.0  0.7995205129932543  0.6726688485171906  0.6039264646514864  1.0000
  C   C37       1.0  0.7186533383143114  0.5362498892262835  0.6480479598515456  1.0000
  C   C38       1.0  0.7161699897355902  0.4459656893427918  0.6511125151506787  1.0000
  C   C39       1.0  0.21477696097681337  0.16652178234551226  0.22366162405393197  1.0000
  C   C40       1.0  0.21521390688669587  0.1720490557098415  0.12587797863474748  1.0000
  C   C41       1.0  0.1347048533996471  0.20967296151594894  0.08505114840273358  1.0000
  C   C42       1.0  0.1342014595164969  0.2118267695789129  0.9942683443938376  1.0000
  C   C43       1.0  0.2945498582500505  0.13883490783442912  0.9832503743905149  1.0000
  C   C44       1.0  0.20452213094257127  0.1541382783438294  0.5647558534348178  1.0000
  C   C45       1.0  0.20615364642019782  0.16069381577877098  0.6619400389382761  1.0000
  C   C46       1.0  0.2959142064141603  0.17331568311773543  0.7898185218605533  1.0000
  C   C47       1.0  0.2957175979956404  0.137818450618532  0.07394452724156506  1.0000
  C   C48       1.0  0.2936614219872594  0.1674525831607312  0.6996695783352748  1.0000
  C   C49       1.0  0.12094675218627061  0.16059979912854766  0.716676606902972  1.0000
  C   C50       1.0  0.12330234354185883  0.1662353429572434  0.8068796181296348  1.0000
  C   C51       1.0  0.2108554555928777  0.1722783580778398  0.8454723812856881  1.0000
  C   C52       1.0  0.21345249242382647  0.1751340507776078  0.941551379431935  1.0000
  C   C53       1.0  0.22142220745075752  0.9845820369222551  0.39019477591775587  1.0000
  C   C54       1.0  0.21860759771118413  0.8875313017494122  0.386734916342064  1.0000
  C   C55       1.0  0.13009128307951556  0.8505047399337683  0.38737674009431083  1.0000
  C   C56       1.0  0.30373994632793716  0.8321379265531945  0.3852596636998341  1.0000
  C   C57       1.0  0.3000965938932012  0.7419407270172158  0.38500861899021277  1.0000
  C   C58       1.0  0.12635368458136043  0.7604312289880256  0.38703374552598285  1.0000
  C   C59       1.0  0.211356609107078  0.7042389488865909  0.38610729220702206  1.0000
  C   C60       1.0  0.2075123584069232  0.608503565812491  0.38802286644487777  1.0000
  C   C61       1.0  0.12785492917846142  0.5689579581490847  0.42916710629926047  1.0000
  C   C62       1.0  0.12488181558340024  0.4785552294057139  0.43115346456288245  1.0000
  C   C63       1.0  0.20189563985903186  0.42484059441657257  0.39316244409123147  1.0000
  C   C64       1.0  0.9230488975918334  0.08376227211631  0.39394171027753794  1.0000
  C   C65       1.0  0.9056483981180676  0.2351397755506568  0.39526983983916597  1.0000
  C   C66       1.0  0.8064684523291349  0.2359693922154094  0.39220673297087666  1.0000
  C   C67       1.0  0.7636540217167465  0.1566479298073631  0.38910593683484507  1.0000
  C   C68       1.0  0.8247145924658669  0.0793740760224324  0.3895335730987312  1.0000
  C   C69       1.0  0.658387337453007  0.15412762618462486  0.38619299390236955  1.0000
  C   C70       1.0  0.6004379539875943  0.22714688683695536  0.3578800158296929  1.0000
  C   C71       1.0  0.6123109723825877  0.07842552080430922  0.4117786394356883  1.0000
  C   C72       1.0  0.5015062416868689  0.2228525979488722  0.3574426694290338  1.0000
  C   C73       1.0  0.5132383550206612  0.07883552411293947  0.4078595065349546  1.0000
  C   C74       1.0  0.20048169484385164  0.32733074924110644  0.39607193083218556  1.0000
  C   C75       1.0  0.28134791777031154  0.4637523221333738  0.35195107373576917  1.0000
  C   C76       1.0  0.2838335960047901  0.5540345600105567  0.3488870713810569  1.0000
  N   N1        1.0  0.03700717199802739  0.839655382178158  0.6034349754794659  1.0000
  N   N2        1.0  0.5415186661303154  0.8501061056670806  0.6179043371674309  1.0000
  N   N3        1.0  0.962991985386374  0.16034617455694192  0.3965648743955582  1.0000
  N   N4        1.0  0.4584829930761884  0.1498915250670905  0.3820980716398096  1.0000
  O   O1        1.0  0.6975948233055647  0.9857557872533108  0.599250778643295  1.0000
  O   O2        1.0  0.8579617796159412  0.9693197521674647  0.6167147103568593  1.0000
  O   O3        1.0  0.8647127321406956  0.812878913955153  0.7325812519141407  1.0000
  O   O4        1.0  0.7057994086073335  0.8593179642102556  0.7440417144838705  1.0000
  O   O5        1.0  0.7198889464606212  0.7165287529848214  0.6245445052498295  1.0000
  O   O6        1.0  0.8795190517921583  0.7045776661500298  0.581202721326548  1.0000
  O   O7        1.0  0.7148263870360622  0.8428161357161699  0.47999072798519626  1.0000
  O   O8        1.0  0.876332946795607  0.8549479421289948  0.4661523741944149  1.0000
  O   O9        1.0  0.3024038463380307  0.0142431528643598  0.4007504896722195  1.0000
  O   O10       1.0  0.1420374358574392  0.030681150917075704  0.3832851554716257  1.0000
  O   O11       1.0  0.1352873196074142  0.18712068384346026  0.26741729119462576  1.0000
  O   O12       1.0  0.29419998113301205  0.14068097792260656  0.2559581992050041  1.0000
  O   O13       1.0  0.2801117085060483  0.2834721531157812  0.37545330403450794  1.0000
  O   O14       1.0  0.1204829236890106  0.295424546210505  0.4187956103432666  1.0000
  O   O15       1.0  0.2851700103405579  0.1571841117429429  0.520010656048498  1.0000
  O   O16       1.0  0.12366279347469342  0.14505165676457213  0.5338458114554285  1.0000
