data_image0
_chemical_formula_structural       Er2Ag2H16C24N8O20
_chemical_formula_sum              "Er2 Ag2 H16 C24 N8 O20"
_cell_length_a       6.708415634104663
_cell_length_b       9.254937936497342
_cell_length_c       14.979304822896538
_cell_angle_alpha    95.08451041513081
_cell_angle_beta     108.00505709654385
_cell_angle_gamma    103.66674059788124

_space_group_name_H-M_alt    "P 1"
_space_group_IT_number       1

loop_
  _space_group_symop_operation_xyz
  'x, y, z'

loop_
  _atom_site_type_symbol
  _atom_site_label
  _atom_site_symmetry_multiplicity
  _atom_site_fract_x
  _atom_site_fract_y
  _atom_site_fract_z
  _atom_site_occupancy
  Er  Er1       1.0  0.09054721685991031  0.5097012369574968  0.2727973978467659  1.0000
  Er  Er2       1.0  0.9094965435396958  0.49030779025109433  0.7272144216562282  1.0000
  Ag  Ag1       1.0  0.4083392018497989  0.17539152007825717  0.19948138282678937  1.0000
  Ag  Ag2       1.0  0.5916335915397042  0.8246079330011187  0.8005141317042686  1.0000
  H   H1        1.0  0.6734744620560917  0.729729928262323  0.1618785673343979  1.0000
  H   H2        1.0  0.3265769339711682  0.27029120679652857  0.8381404754092046  1.0000
  H   H3        1.0  0.591160535334886  0.6585228250056688  0.9840766669190515  1.0000
  H   H4        1.0  0.40884836195770186  0.3414709418597539  0.0159305595640689  1.0000
  H   H5        1.0  0.5739426292104782  0.0465976008631941  0.3863626974160893  1.0000
  H   H6        1.0  0.4260455255540305  0.9533866318432656  0.6136587525303695  1.0000
  H   H7        1.0  0.7317681452106584  0.13878119463205962  0.5647983209633266  1.0000
  H   H8        1.0  0.26825650650847166  0.8612420188865857  0.4352097900080878  1.0000
  H   H9        1.0  0.04970763385854578  0.6127490054737236  0.08246915006904489  1.0000
  H   H10       1.0  0.9502846185503132  0.3872564565089149  0.917537791229428  1.0000
  H   H11       1.0  0.9023384620553044  0.4447623956292547  0.06923782592288315  1.0000
  H   H12       1.0  0.09765711035920077  0.5552340848625051  0.9307647464646535  1.0000
  H   H13       1.0  0.4093490368859846  0.7600133000397945  0.29253456512922327  1.0000
  H   H14       1.0  0.5906474477422279  0.23998072103535154  0.7074712547840035  1.0000
  H   H15       1.0  0.22825864098749088  0.818531993798942  0.2211146715786896  1.0000
  H   H16       1.0  0.7717200915312217  0.1814620362459536  0.7788730539310861  1.0000
  C   C1        1.0  0.69904723261034  0.8159004646810646  0.11806046461747137  1.0000
  C   C2        1.0  0.30096120286735584  0.1841003071380598  0.8819439392771072  1.0000
  C   C3        1.0  0.6546238177861526  0.775859009026995  0.020104744802033298  1.0000
  C   C4        1.0  0.34537106502895637  0.2241296454387722  0.9798944302338981  1.0000
  C   C5        1.0  0.7654828238188572  0.027014543994901902  0.009517089770632509  1.0000
  C   C6        1.0  0.23450460132321638  0.9729978816621242  0.9904891991424947  1.0000
  C   C7        1.0  0.8106959834038178  0.06522592227459263  0.10790236662686678  1.0000
  C   C8        1.0  0.18931373672069896  0.9347871528036366  0.8921072083899091  1.0000
  C   C9        1.0  0.9063696067319781  0.22552429454786702  0.1606210208756309  1.0000
  C   C10       1.0  0.09364613552422435  0.7744894412970994  0.8393732472458453  1.0000
  C   C11       1.0  0.8004349605077651  0.14257356342991298  0.9464788803730285  1.0000
  C   C12       1.0  0.19952871812874654  0.8574225949059056  0.05351665331652099  1.0000
  C   C13       1.0  0.6204075667172902  0.16623532683678377  0.4163132279349497  1.0000
  C   C14       1.0  0.3795889170396052  0.8337675471998979  0.5836752582325317  1.0000
  C   C15       1.0  0.7060384765005523  0.21634476811286163  0.5145686216268216  1.0000
  C   C16       1.0  0.2939327371701239  0.7836438858195508  0.4854144533876195  1.0000
  C   C17       1.0  0.7342723325167099  0.4612983921979677  0.4902114649601685  1.0000
  C   C18       1.0  0.26572017601681347  0.5386798013136697  0.509791929524475  1.0000
  C   C19       1.0  0.6528917596093252  0.41132739904843163  0.3913364751107977  1.0000
  C   C20       1.0  0.3470953095525289  0.58867501438192  0.6086642686425918  1.0000
  C   C21       1.0  0.6344988680291195  0.520322762132146  0.3212308210267381  1.0000
  C   C22       1.0  0.365535076868774  0.4797043257626257  0.6787887102389405  1.0000
  C   C23       1.0  0.7984379380618236  0.6273087510030776  0.5340966525413009  1.0000
  C   C24       1.0  0.20156476404789456  0.3726559615114695  0.4658987807010817  1.0000
  N   N1        1.0  0.7730793727615861  0.9600961292795347  0.16173836039757106  1.0000
  N   N2        1.0  0.22694426138031784  0.03991126142715022  0.8382663279542867  1.0000
  N   N3        1.0  0.6850481896523561  0.8811169923661167  0.9664903152291442  1.0000
  N   N4        1.0  0.3149138652101797  0.11888804738038058  0.03351111202603359  1.0000
  N   N5        1.0  0.5914791582045922  0.26269119794587675  0.35466039483515027  1.0000
  N   N6        1.0  0.4085319011666896  0.7373118023045534  0.6453210821272392  1.0000
  N   N7        1.0  0.7586959029462294  0.36312545730024237  0.5510875681353582  1.0000
  N   N8        1.0  0.24130266162949704  0.6368628603971515  0.44891735387687953  1.0000
  O   O1        1.0  0.10984284502870875  0.2879267660209734  0.1824108765045764  1.0000
  O   O2        1.0  0.8901667287045496  0.7121040832843234  0.8175626821872584  1.0000
  O   O3        1.0  0.7851860650232326  0.29572764995166506  0.185176158523646  1.0000
  O   O4        1.0  0.21483775822261447  0.7042864383408015  0.8148317769902249  1.0000
  O   O5        1.0  0.8360464194584408  0.280854560160016  0.9796876479964567  1.0000
  O   O6        1.0  0.16388141656985764  0.7191451323410831  0.020293351516159002  1.0000
  O   O7        1.0  0.7933469708311806  0.09259442832708231  0.8635829539393354  1.0000
  O   O8        1.0  0.20665611465661005  0.9074087957813289  0.13641969821601652  1.0000
  O   O9        1.0  0.4539288313742701  0.5503943494201167  0.2885894782891611  1.0000
  O   O10       1.0  0.5460851431972528  0.44961066769549535  0.711419924506643  1.0000
  O   O11       1.0  0.7969450460739154  0.5670183916268954  0.2950463025043176  1.0000
  O   O12       1.0  0.2030652689646501  0.4329903452019721  0.7049583024794541  1.0000
  O   O13       1.0  0.7695755098687016  0.7204653968187316  0.47997195747554844  1.0000
  O   O14       1.0  0.23039873511491044  0.27948792830429886  0.5200078970995818  1.0000
  O   O15       1.0  0.878418775865093  0.6539711558565812  0.6259273292301089  1.0000
  O   O16       1.0  0.12162287128101201  0.34600762738426727  0.3740723998895348  1.0000
  O   O17       1.0  0.9647961853638806  0.5420218297521089  0.1137852709002374  1.0000
  O   O18       1.0  0.035187113260128904  0.45797620414956  0.8862126730233512  1.0000
  O   O19       1.0  0.2605337116281631  0.7683523253658606  0.2797230006511811  1.0000
  O   O20       1.0  0.7394650247272736  0.23164679242980676  0.7202714563405479  1.0000
