data_image0
_chemical_formula_structural       Zn2H32C48Br8N2O10
_chemical_formula_sum              "Zn2 H32 C48 Br8 N2 O10"
_cell_length_a       10.982065478917885
_cell_length_b       18.288140412342873
_cell_length_c       19.63369274351766
_cell_angle_alpha    88.32191269864512
_cell_angle_beta     89.08094391981633
_cell_angle_gamma    70.18183650875787

_space_group_name_H-M_alt    "P 1"
_space_group_IT_number       1

loop_
  _space_group_symop_operation_xyz
  'x, y, z'

loop_
  _atom_site_type_symbol
  _atom_site_label
  _atom_site_symmetry_multiplicity
  _atom_site_fract_x
  _atom_site_fract_y
  _atom_site_fract_z
  _atom_site_occupancy
  Zn  Zn1       1.0  0.483269312113329  0.5803401882985142  0.496748401784899  1.0000
  Zn  Zn2       1.0  0.5190997266216897  0.4181980097994327  0.5000969479444137  1.0000
  H   H1        1.0  0.14373290638233985  0.44296157265989666  0.4890653770074209  1.0000
  H   H2        1.0  0.3059229518636358  0.9625874412417232  0.4843409174089218  1.0000
  H   H3        1.0  0.4498756560872008  0.6209550256113945  0.7110932370051729  1.0000
  H   H4        1.0  0.4604029356011097  0.624445911730234  0.2800170326687308  1.0000
  H   H5        1.0  0.5176712075166706  0.37693088440656913  0.8466103510406601  1.0000
  H   H6        1.0  0.541764447649804  0.3791440995094463  0.15631634681609094  1.0000
  H   H7        1.0  0.522823012806242  0.3750685966926852  0.7191022923218428  1.0000
  H   H8        1.0  0.54734170030914  0.3773374419727418  0.2839237488122492  1.0000
  H   H9        1.0  0.35716318463822455  0.7213359914878267  0.574282104527093  1.0000
  H   H10       1.0  0.6484773421710059  0.2754290032606548  0.4258445681854682  1.0000
  H   H11       1.0  0.13402678760449047  0.5767034012566724  0.04757350269387221  1.0000
  H   H12       1.0  0.8585092129370224  0.5572392061822101  0.4898272635781994  1.0000
  H   H13       1.0  0.22619312583867676  0.593734385732226  0.11612020716378882  1.0000
  H   H14       1.0  0.009721265480941054  0.5824835793596391  0.15086569322814825  1.0000
  H   H15       1.0  0.06611625730389642  0.4849382109150398  0.12485811917743213  1.0000
  H   H16       1.0  0.24486251723956803  0.45296740783620487  0.21264923809836495  1.0000
  H   H17       1.0  0.09032017517139207  0.492551525379625  0.2521045185263589  1.0000
  H   H18       1.0  0.18903508602327426  0.5510516644288046  0.23800822811143268  1.0000
  H   H19       1.0  0.7474613793867209  0.4067838991161138  0.8774929356172624  1.0000
  H   H20       1.0  0.8471377900462683  0.41830094489842645  0.945051813480241  1.0000
  H   H21       1.0  0.8192288715503865  0.4969299209097926  0.8029799765357385  1.0000
  H   H22       1.0  0.9167680748258888  0.5100612483577434  0.8692021647796938  1.0000
  H   H23       1.0  0.36310399838666285  0.8570401008232834  0.5804720954444209  1.0000
  H   H24       1.0  0.05139360691838133  0.3666884305106492  0.8673830500894444  1.0000
  H   H25       1.0  0.05051908558793629  0.41149104639192297  0.7859064723696252  1.0000
  H   H26       1.0  0.9524580958224148  0.3531034587006516  0.8015799198788118  1.0000
  H   H27       1.0  0.641567753016595  0.13985729145087336  0.4203652259517128  1.0000
  H   H28       1.0  0.6638533897934451  0.7958334639543808  0.4262147780932965  1.0000
  H   H29       1.0  0.33448983193873977  0.20434442946463346  0.5710553631189017  1.0000
  H   H30       1.0  0.6447670578877687  0.6632013160212509  0.42663056292207113  1.0000
  H   H31       1.0  0.35426155023105815  0.3368028891064441  0.5696536549106527  1.0000
  H   H32       1.0  0.6951857121300478  0.0358066843237239  0.5155841323454808  1.0000
  C   C1        1.0  0.5073845051271277  0.5002100871673676  0.3655376661266701  1.0000
  C   C2        1.0  0.48496608286300374  0.4991202033904613  0.926791349697858  1.0000
  C   C3        1.0  0.4228780655152985  0.7410095131654727  0.5424123694420615  1.0000
  C   C4        1.0  0.5809607899403773  0.25648961267934567  0.4569819248697372  1.0000
  C   C5        1.0  0.4266225310638489  0.8160331651280756  0.5452606197061771  1.0000
  C   C6        1.0  0.5767018538855594  0.1815415336022284  0.45458275269561454  1.0000
  C   C7        1.0  0.5133576478757077  0.8379664918353241  0.5031192305330239  1.0000
  C   C8        1.0  0.4880875443242942  0.16047807653566784  0.4960257340673807  1.0000
  C   C9        1.0  0.5948158671834418  0.7820202469705748  0.4600990052124915  1.0000
  C   C10       1.0  0.4051604134096465  0.2173501243642164  0.5377839335278624  1.0000
  C   C11       1.0  0.5846485886689977  0.7083132207436407  0.4598469253616744  1.0000
  C   C12       1.0  0.49126362230852993  0.49741079341085037  0.6312331703555999  1.0000
  C   C13       1.0  0.41574521284176313  0.2909742817702963  0.5375173320041142  1.0000
  C   C14       1.0  0.6205987392370459  0.9417206724188321  0.5101873664927439  1.0000
  C   C15       1.0  0.3805648465851803  0.056707271430731496  0.48957127923453214  1.0000
  C   C16       1.0  0.7538236595381067  0.449633432154499  0.49664435688926295  1.0000
  C   C17       1.0  0.24864743469921555  0.5499502695655493  0.4932376248628503  1.0000
  C   C18       1.0  0.6095055271373652  0.019864618841438603  0.5077692445487543  1.0000
  C   C19       1.0  0.3916002217899076  0.9785719263038717  0.49206957858662304  1.0000
  C   C20       1.0  0.4898039083726786  0.07920421879232718  0.4974329162146633  1.0000
  C   C21       1.0  0.5113587177310496  0.919272854490593  0.5021583958489445  1.0000
  C   C22       1.0  0.8953254379421195  0.43866703756351916  0.4919203668984836  1.0000
  C   C23       1.0  0.4870240775487743  0.4978343451242822  0.7077112492470335  1.0000
  C   C24       1.0  0.10711820262389442  0.5613615354640373  0.4890729048573377  1.0000
  C   C25       1.0  0.9359546188971352  0.5009261078791736  0.4891100459786345  1.0000
  C   C26       1.0  0.06623987079532868  0.49928684942442886  0.4883065366710613  1.0000
  C   C27       1.0  0.4645471210747943  0.5677721818072498  0.7411621183319  1.0000
  C   C28       1.0  0.47922870952587004  0.5709245549499542  0.2524510553134861  1.0000
  C   C29       1.0  0.4619980506820055  0.5682899798570348  0.812012407721845  1.0000
  C   C30       1.0  0.4759194518819427  0.5713376540880404  0.1816477541800339  1.0000
  C   C31       1.0  0.4821171475999224  0.4997898806359655  0.8512242838809811  1.0000
  C   C32       1.0  0.4996264163070024  0.5024968299877343  0.14581593538406423  1.0000
  C   C33       1.0  0.5029864258014101  0.4303927176102035  0.8166542959298726  1.0000
  C   C34       1.0  0.5056032210985891  0.500619160378889  0.2891727613231653  1.0000
  C   C35       1.0  0.5249854633642812  0.4327169781603857  0.18373287715260037  1.0000
  C   C36       1.0  0.5055778469871371  0.42903203610762114  0.7458333706107825  1.0000
  C   C37       1.0  0.5282016215876126  0.43140283460364504  0.2544816895906764  1.0000
  C   C38       1.0  0.1856905037394014  0.5516952872775319  0.09500524225622094  1.0000
  C   C39       1.0  0.0973008202259749  0.5307392841216724  0.14623473394998854  1.0000
  C   C40       1.0  0.15868447050262804  0.5052682069973925  0.21617254918167825  1.0000
  C   C41       1.0  0.7922510692501561  0.4464916675921913  0.8992107136346025  1.0000
  C   C42       1.0  0.8786119492113681  0.46767332386026783  0.8469734847177082  1.0000
  C   C43       1.0  0.9892807489501223  0.3957589334421313  0.8242829269790594  1.0000
  C   C44       1.0  0.3837840057062252  0.4913647760488828  0.9674633563389536  1.0000
  C   C45       1.0  0.5991585722210572  0.5073276366249287  0.029737583235117906  1.0000
  C   C46       1.0  0.38833345846556716  0.49218068968027484  0.03889048611698341  1.0000
  C   C47       1.0  0.5942428520952986  0.5067747236888209  0.9585152713967349  1.0000
  C   C48       1.0  0.49662285835250947  0.501338771810417  0.07037492882017922  1.0000
  Br  Br1       1.0  0.7869705632734492  0.8677101788358782  0.5290379437513907  1.0000
  Br  Br2       1.0  0.2140270717254537  0.13041817865698138  0.4705929631181221  1.0000
  Br  Br3       1.0  0.9903143279769748  0.6653375042341452  0.4866523479931575  1.0000
  Br  Br4       1.0  0.013382711790725891  0.3349340792621546  0.4918699246435949  1.0000
  Br  Br5       1.0  0.42819935499630896  0.6651361644388487  0.8553868451992276  1.0000
  Br  Br6       1.0  0.4348834736435662  0.6688749742632467  0.13349019704637755  1.0000
  Br  Br7       1.0  0.23486249378412083  0.4809942595918954  0.926292296008896  1.0000
  Br  Br8       1.0  0.7494402103254245  0.5158505965704238  0.07072398943587643  1.0000
  N   N1        1.0  0.49980551311785615  0.6884034317895028  0.4999703237688351  1.0000
  N   N2        1.0  0.5025891065100794  0.3099574481826154  0.4982351405386256  1.0000
  O   O1        1.0  0.488941562180834  0.5650891913156498  0.3936090933672177  1.0000
  O   O2        1.0  0.6910500952993601  0.5173707403968776  0.9188562815453595  1.0000
  O   O3        1.0  0.5116241474389938  0.43222678893844346  0.6033528370262147  1.0000
  O   O4        1.0  0.5267754840371949  0.4349625905573332  0.39615630137372193  1.0000
  O   O5        1.0  0.474564964194805  0.5621669085304858  0.6002227977553221  1.0000
  O   O6        1.0  0.6803474144382947  0.5204384799504921  0.49770662342373856  1.0000
  O   O7        1.0  0.32190686440601  0.47904996496138363  0.4962449391152718  1.0000
  O   O8        1.0  0.7186382734031582  0.39035119772347565  0.49936522290261837  1.0000
  O   O9        1.0  0.2839135255434614  0.609141141655506  0.4938138426269774  1.0000
  O   O10       1.0  0.2920519352703719  0.48111264531307557  0.07871325104942173  1.0000
