data_image0
_chemical_formula_structural       Zn2H40C22N8Cl4O4
_chemical_formula_sum              "Zn2 H40 C22 N8 Cl4 O4"
_cell_length_a       6.169305323827462
_cell_length_b       11.17445186300148
_cell_length_c       11.13907725461044
_cell_angle_alpha    90.00004473691203
_cell_angle_beta     95.51607702837707
_cell_angle_gamma    89.9999568573299

_space_group_name_H-M_alt    "P 1"
_space_group_IT_number       1

loop_
  _space_group_symop_operation_xyz
  'x, y, z'

loop_
  _atom_site_type_symbol
  _atom_site_label
  _atom_site_symmetry_multiplicity
  _atom_site_fract_x
  _atom_site_fract_y
  _atom_site_fract_z
  _atom_site_occupancy
  Zn  Zn1       1.0  0.48295443100835195  0.782586900023503  0.175711302977497  1.0000
  Zn  Zn2       1.0  0.5170445737727789  0.2825876781062888  0.8242887808748236  1.0000
  H   H1        1.0  0.7562846236744108  0.541003918467446  0.914847626017263  1.0000
  H   H2        1.0  0.24371467051894768  0.0410042309015282  0.0851513877774437  1.0000
  H   H3        1.0  0.6484003646070704  0.8886237040308346  0.9852566232089475  1.0000
  H   H4        1.0  0.3515985266356481  0.3886239161651305  0.014745332456783406  1.0000
  H   H5        1.0  0.1984747246419687  0.6208871509441708  0.9226148467128041  1.0000
  H   H6        1.0  0.8015260908005929  0.1208845395703335  0.07738340765560282  1.0000
  H   H7        1.0  0.21475129591055256  0.3850803961626069  0.6505894550878963  1.0000
  H   H8        1.0  0.7852475910597859  0.8850832076561375  0.3494115998700522  1.0000
  H   H9        1.0  0.09103774612600549  0.8107353849288612  0.8544377011238924  1.0000
  H   H10       1.0  0.9089547187845497  0.31073636175385383  0.14556297321708916  1.0000
  H   H11       1.0  0.0116714346804727  0.8054178532203764  0.6976164824685896  1.0000
  H   H12       1.0  0.9883307901847544  0.305415340315747  0.30238288329979923  1.0000
  H   H13       1.0  0.9784306589882091  0.0003777941199132002  0.895702536495982  1.0000
  H   H14       1.0  0.0215703483439924  0.5003771527546874  0.10430012307853082  1.0000
  H   H15       1.0  0.7076348991289407  0.0512313344925914  0.8516505908702144  1.0000
  H   H16       1.0  0.29236441701691257  0.5512297196647182  0.14835202295147812  1.0000
  H   H17       1.0  0.8932941476407592  0.030450814907361193  0.7415742516178838  1.0000
  H   H18       1.0  0.10670517685835529  0.5304493639871806  0.258426551044181  1.0000
  H   H19       1.0  0.632099970655666  0.8773603714608385  0.6189172391701803  1.0000
  H   H20       1.0  0.3678989258418213  0.37735907437004096  0.3810838102940437  1.0000
  H   H21       1.0  0.4515165591219768  0.9269745170253572  0.7238346190076258  1.0000
  H   H22       1.0  0.5484822675215355  0.426973062193241  0.2761655675656769  1.0000
  H   H23       1.0  0.49541111255724957  0.771326597053964  0.7040202243348832  1.0000
  H   H24       1.0  0.5045879147611602  0.2713233863053617  0.2959807496929798  1.0000
  H   H25       1.0  0.7245472597689471  0.5131358101619979  0.7074903127137733  1.0000
  H   H26       1.0  0.27544879463145117  0.013133587307798702  0.2925067210155348  1.0000
  H   H27       1.0  0.7214820290283439  0.6489294640723813  0.6257582217955787  1.0000
  H   H28       1.0  0.2785220087093662  0.1489264091543276  0.3742402163853313  1.0000
  H   H29       1.0  0.9911723092190599  0.4023490146332804  0.45848534401268654  1.0000
  H   H30       1.0  0.0088281848940568  0.9023487215731552  0.5415158051608344  1.0000
  H   H31       1.0  0.7615042699369922  0.4992164497937921  0.44827503493091575  1.0000
  H   H32       1.0  0.2384960873807458  0.9992160688014665  0.5517243867812525  1.0000
  H   H33       1.0  0.7813460528694235  0.3800276438608137  0.5559191621298183  1.0000
  H   H34       1.0  0.21865444285637634  0.8800262918149002  0.4440792765995455  1.0000
  H   H35       1.0  0.2139842091624047  0.6863783761068376  0.5984597532784903  1.0000
  H   H36       1.0  0.7860181366384822  0.18638049999263728  0.4015368332395397  1.0000
  H   H37       1.0  0.006388358352005201  0.679987006232146  0.4753632268513713  1.0000
  H   H38       1.0  0.993617260868852  0.17998913996216  0.5246344171700343  1.0000
  H   H39       1.0  0.23451410705821016  0.5825271466384336  0.48057445681789107  1.0000
  H   H40       1.0  0.765488410080863  0.0825302664777894  0.5194265467569963  1.0000
  C   C1        1.0  0.6864751407193951  0.7114454202909001  0.9592574590619591  1.0000
  C   C2        1.0  0.31352394319144133  0.21144477382638635  0.040741675989728804  1.0000
  C   C3        1.0  0.7621783360649272  0.8650734625577671  0.8086321612041801  1.0000
  C   C4        1.0  0.23782216946668908  0.365074755674165  0.1913653686993655  1.0000
  C   C5        1.0  0.9577764430179412  0.7859545433596155  0.786385676375275  1.0000
  C   C6        1.0  0.042221015587628606  0.2859523560477584  0.2136233098194964  1.0000
  C   C7        1.0  0.921765992998523  0.6503836994452  0.7970185000993483  1.0000
  C   C8        1.0  0.0782315205198785  0.1503779091507198  0.20297871320229896  1.0000
  C   C9        1.0  0.8408221285447793  0.9944032864452481  0.8257518351174014  1.0000
  C   C10       1.0  0.1591733752988986  0.49440459898710293  0.1742500319410709  1.0000
  C   C11       1.0  0.5745279967343463  0.8593675893870768  0.7075465661220264  1.0000
  C   C12       1.0  0.42547093060424857  0.35936619871971226  0.29245536872943495  1.0000
  C   C13       1.0  0.22065874077757286  0.4970635721333919  0.7927613281642963  1.0000
  C   C14       1.0  0.7793449020159001  0.997062694970964  0.20724095044224816  1.0000
  C   C15       1.0  0.9936278532146047  0.5327456230194159  0.6020492316942595  1.0000
  C   C16       1.0  0.006368151063235  0.0327462799801239  0.397945121423419  1.0000
  C   C17       1.0  0.8271356390636695  0.5868369323480565  0.6804673747283233  1.0000
  C   C18       1.0  0.17286848392118506  0.0868374582422575  0.3195319174672165  1.0000
  C   C19       1.0  0.8737534761386455  0.44787970466897775  0.510969378109067  1.0000
  C   C20       1.0  0.12624859888651227  0.9478837958788945  0.4890327835770806  1.0000
  C   C21       1.0  0.11922942127426239  0.6263271035727556  0.5356257080174913  1.0000
  C   C22       1.0  0.8807795556125626  0.1263274473706488  0.46437565444202994  1.0000
  N   N1        1.0  0.7745594964167141  0.6282949875605226  0.8902763141711247  1.0000
  N   N2        1.0  0.22543807891941003  0.1282953269051887  0.10972447616967432  1.0000
  N   N3        1.0  0.6812964736322799  0.8258205920132509  0.9224440373547225  1.0000
  N   N4        1.0  0.318702495092971  0.32582265696091645  0.07755787363160492  1.0000
  N   N5        1.0  0.1339169043358837  0.5965369437779771  0.8385375720213447  1.0000
  N   N6        1.0  0.8660872239665022  0.09653705608764077  0.1614635234507205  1.0000
  N   N7        1.0  0.14766034082989424  0.4617016303879992  0.6818340205984299  1.0000
  N   N8        1.0  0.8523351860767718  0.9616999148525804  0.31816602681821854  1.0000
  Cl  Cl1       1.0  0.1426228768192104  0.8209387110366396  0.10080629450821021  1.0000
  Cl  Cl2       1.0  0.8573760979293823  0.3209403006095854  0.8991956130048352  1.0000
  Cl  Cl3       1.0  0.5730140959743437  0.7226681326755084  0.3648006906802053  1.0000
  Cl  Cl4       1.0  0.42698985078504137  0.222669694941942  0.6351977999622989  1.0000
  O   O1        1.0  0.6055490653442844  0.6760590067191358  0.054866999133039905  1.0000
  O   O2        1.0  0.39444516824194414  0.1760617206100576  0.9451309667632303  1.0000
  O   O3        1.0  0.375245699323564  0.4431020813487194  0.8565479873087442  1.0000
  O   O4        1.0  0.6247531247079293  0.9430994289285691  0.14345400711355444  1.0000
