data_image0
_chemical_formula_structural       Cd2H26C24N10Cl4
_chemical_formula_sum              "Cd2 H26 C24 N10 Cl4"
_cell_length_a       7.609456368575183
_cell_length_b       9.584145604768574
_cell_length_c       10.228920424238142
_cell_angle_alpha    75.37251266605435
_cell_angle_beta     82.67253717841561
_cell_angle_gamma    88.8822477468773

_space_group_name_H-M_alt    "P 1"
_space_group_IT_number       1

loop_
  _space_group_symop_operation_xyz
  'x, y, z'

loop_
  _atom_site_type_symbol
  _atom_site_label
  _atom_site_symmetry_multiplicity
  _atom_site_fract_x
  _atom_site_fract_y
  _atom_site_fract_z
  _atom_site_occupancy
  Cd  Cd1       1.0  0.367576816145288  0.6006383346045113  0.3483018995278471  1.0000
  Cd  Cd2       1.0  0.632422464051217  0.39935775948022467  0.6517004372478538  1.0000
  H   H1        1.0  0.9344736757160066  0.23490246620850996  0.3147884663655631  1.0000
  H   H2        1.0  0.06553745213989261  0.7650925596420209  0.6852070662484948  1.0000
  H   H3        1.0  0.652322876533738  0.09831473596177182  0.3989757258497874  1.0000
  H   H4        1.0  0.34768557821657714  0.9016802558799953  0.6010181302584172  1.0000
  H   H5        1.0  0.6376880591407855  0.832193706628189  0.44255273238984216  1.0000
  H   H6        1.0  0.3623243574467808  0.1677980820706111  0.5574424836383685  1.0000
  H   H7        1.0  0.9120055359521049  0.6895040719682798  0.4113077801894888  1.0000
  H   H8        1.0  0.08801223514553413  0.3104963640510974  0.5886838017171385  1.0000
  H   H9        1.0  0.2616871211153864  0.288126835232319  0.2681960044135181  1.0000
  H   H10       1.0  0.738304246894032  0.7118681737297053  0.731811309334077  1.0000
  H   H11       1.0  0.47350494780696556  0.20636320312517137  0.2498721274199127  1.0000
  H   H12       1.0  0.5264931657154719  0.7936490875732005  0.750129300114125  1.0000
  H   H13       1.0  0.07257463557159131  0.30858492939848503  0.0566911492338207  1.0000
  H   H14       1.0  0.9274182290013827  0.6914295167066059  0.9433132156312426  1.0000
  H   H15       1.0  0.2003074691258178  0.3922036928648894  0.7819724101228046  1.0000
  H   H16       1.0  0.7996827206717115  0.607807503183686  0.2180330201860272  1.0000
  H   H17       1.0  0.7022437910332473  0.28519235470290744  0.10343898303951694  1.0000
  H   H18       1.0  0.2977475588597187  0.7148047824124716  0.8965648790798397  1.0000
  H   H19       1.0  0.7733195507820128  0.30888443092419493  0.9284873363601847  1.0000
  H   H20       1.0  0.22667306972616796  0.6911115971928082  0.07151275754509363  1.0000
  H   H21       1.0  0.7076508945037078  0.043040026545902804  0.9535770553270098  1.0000
  H   H22       1.0  0.2923325316643428  0.9569560159196727  0.04643080956714841  1.0000
  H   H23       1.0  0.6461471412604851  0.0189501972654753  0.130558895721073  1.0000
  H   H24       1.0  0.353833620050473  0.9810468895586412  0.8694470281487625  1.0000
  H   H25       1.0  0.8677180260803398  0.0685327195899248  0.05820141604229427  1.0000
  H   H26       1.0  0.132264015713794  0.931460051715156  0.9418044557601705  1.0000
  C   C1        1.0  0.0748141841213439  0.8842243793259359  0.3393102553640687  1.0000
  C   C2        1.0  0.9251929324567174  0.11577488039942102  0.6606787818260287  1.0000
  C   C3        1.0  0.08030335806727609  0.03643206825820041  0.3105067210197561  1.0000
  C   C4        1.0  0.9197209655386303  0.963561915889599  0.6894838198826676  1.0000
  C   C5        1.0  0.9291668907679096  0.11811658776765202  0.33054549261640886  1.0000
  C   C6        1.0  0.07084284451597261  0.8818815894908028  0.6694415888096259  1.0000
  C   C7        1.0  0.7724612811531772  0.039719330242519404  0.3780550740259799  1.0000
  C   C8        1.0  0.22753790340107835  0.9602702555299989  0.6219449530721946  1.0000
  C   C9        1.0  0.7647710494437661  0.887535166365815  0.40466171566841064  1.0000
  C   C10       1.0  0.2352348096763636  0.11246092699703071  0.5953360445980422  1.0000
  C   C11       1.0  0.9148630787399343  0.8067888720776893  0.3870416673812471  1.0000
  C   C12       1.0  0.0851546907382499  0.19321584882965942  0.612945933860189  1.0000
  C   C13       1.0  0.339972556253997  0.21224510703539323  0.22044569513327164  1.0000
  C   C14       1.0  0.6600281297726059  0.7877585621519927  0.7795566024631241  1.0000
  C   C15       1.0  0.20508863776162667  0.3079497738583825  0.003822317837311556  1.0000
  C   C16       1.0  0.7949055402885111  0.6920646701969135  0.996180936886482  1.0000
  C   C17       1.0  0.27060080201384556  0.34837481537348947  0.868766547349587  1.0000
  C   C18       1.0  0.7293920427728224  0.6516385428372049  0.13123710783685275  1.0000
  C   C19       1.0  0.49923288283130784  0.27871560149660013  0.9801836600534272  1.0000
  C   C20       1.0  0.5007610907266554  0.7212826003594087  0.0198167430678211  1.0000
  C   C21       1.0  0.6827561234857171  0.24503583803845433  0.014296360587721253  1.0000
  C   C22       1.0  0.3172365481329039  0.7549623753944347  0.9857061268718966  1.0000
  C   C23       1.0  0.7284245727565519  0.08422288317256489  0.0410004531232957  1.0000
  C   C24       1.0  0.2715575597206552  0.9157742492372097  0.959009231590741  1.0000
  N   N1        1.0  0.24662938606459053  0.838764098186374  0.31703934457603106  1.0000
  N   N2        1.0  0.7533871144178335  0.1612374468313718  0.6829560055446748  1.0000
  N   N3        1.0  0.35412397136793333  0.9502101107086107  0.27655666268968543  1.0000
  N   N4        1.0  0.6458925703065859  0.049789325209971515  0.7234440874534442  1.0000
  N   N5        1.0  0.25666656026755424  0.0707965371101125  0.2712767307504365  1.0000
  N   N6        1.0  0.7433446467336039  0.9292028403180197  0.728721640578101  1.0000
  N   N7        1.0  0.3498314354939894  0.263719525236489  0.0733922255089823  1.0000
  N   N8        1.0  0.6501612938641089  0.7362862367675831  0.9266084103213075  1.0000
  N   N9        1.0  0.45242179031532714  0.330219317191137  0.8554319666543434  1.0000
  N   N10       1.0  0.547568267556649  0.6697821259161928  0.14457097333528413  1.0000
  Cl  Cl1       1.0  0.09654855790985555  0.4883020542749253  0.3063022641453442  1.0000
  Cl  Cl2       1.0  0.9034494253064838  0.5116961985942367  0.6937006537346734  1.0000
  Cl  Cl3       1.0  0.4140860666243782  0.6235703935934253  0.5871318517518774  1.0000
  Cl  Cl4       1.0  0.5859172051140576  0.3764278796578182  0.41286954815436167  1.0000
