data_image0
_chemical_formula_structural       Cd2H30C44S2N10O10
_chemical_formula_sum              "Cd2 H30 C44 S2 N10 O10"
_cell_length_a       9.463669515833345
_cell_length_b       10.05557601937805
_cell_length_c       11.279978821100308
_cell_angle_alpha    70.81437239812128
_cell_angle_beta     85.90246990330124
_cell_angle_gamma    86.23640044074698

_space_group_name_H-M_alt    "P 1"
_space_group_IT_number       1

loop_
  _space_group_symop_operation_xyz
  'x, y, z'

loop_
  _atom_site_type_symbol
  _atom_site_label
  _atom_site_symmetry_multiplicity
  _atom_site_fract_x
  _atom_site_fract_y
  _atom_site_fract_z
  _atom_site_occupancy
  Cd  Cd1       1.0  0.7391325758236819  0.1775451732677951  0.4869221190619866  1.0000
  Cd  Cd2       1.0  0.26086493759823526  0.8224552934354391  0.5130801138973522  1.0000
  H   H1        1.0  0.8359889008646348  0.8956441353963598  0.4772348538873386  1.0000
  H   H2        1.0  0.16400961719062931  0.10435737672749922  0.5227661125593812  1.0000
  H   H3        1.0  0.6660619738003462  0.9084673912489478  0.47966771653342716  1.0000
  H   H4        1.0  0.33393543246715046  0.0915351980609032  0.520334762517642  1.0000
  H   H5        1.0  0.1447312355015384  0.10713026309721128  0.1408474380707574  1.0000
  H   H6        1.0  0.855266440090787  0.8928670567731769  0.8591566308979776  1.0000
  H   H7        1.0  0.043267547034609805  0.2937743535211226  0.952892147265878  1.0000
  H   H8        1.0  0.9567353689108626  0.7062240223933429  0.04710950725031178  1.0000
  H   H9        1.0  0.4684146421399973  0.41086105085885544  0.4521431094317591  1.0000
  H   H10       1.0  0.5315934620201973  0.5891394794800674  0.5478584588247483  1.0000
  H   H11       1.0  0.36859196974692304  0.6274901927448866  0.2925392015318734  1.0000
  H   H12       1.0  0.6314119531339557  0.3725092879135303  0.7074647147068944  1.0000
  H   H13       1.0  0.6626996167023833  0.7810528155851201  0.7061065993951556  1.0000
  H   H14       1.0  0.33729170444697587  0.2189444661038563  0.2938978683952697  1.0000
  H   H15       1.0  0.8522537011791798  0.6172732135080353  0.65819607207068  1.0000
  H   H16       1.0  0.14773946649096098  0.38272929102420505  0.34180314462633266  1.0000
  H   H17       1.0  0.0251062764210488  0.31725653799398396  0.7488496045507487  1.0000
  H   H18       1.0  0.9748900151811243  0.6827470543476932  0.25114997681067297  1.0000
  H   H19       1.0  0.05137688762177818  0.4607411035869333  0.6084686126656533  1.0000
  H   H20       1.0  0.9486227422212606  0.5392593313509408  0.391530841176724  1.0000
  H   H21       1.0  0.0170890633741223  0.06060399549834021  0.34938614612507723  1.0000
  H   H22       1.0  0.9829085033372493  0.9393954024861627  0.6506155227589968  1.0000
  H   H23       1.0  0.5252757503428286  0.9010523521936448  0.8988439226125349  1.0000
  H   H24       1.0  0.47472017782595094  0.0989374145951984  0.10115280253472037  1.0000
  H   H25       1.0  0.32615405259545577  0.8416984582618523  0.07064057101459298  1.0000
  H   H26       1.0  0.6738448413635395  0.15829564698509557  0.9293608571992632  1.0000
  H   H27       1.0  0.09660575308636511  0.9716176710783698  0.026087368683164303  1.0000
  H   H28       1.0  0.9033960522223693  0.028381811683736696  0.973917562554966  1.0000
  H   H29       1.0  0.48034244891885436  0.6967551341018208  0.06983863977758624  1.0000
  H   H30       1.0  0.5196560697119281  0.30324639285286986  0.9301632087279327  1.0000
  C   C1        1.0  0.4014016746056583  0.06927846109123688  0.7756788531101789  1.0000
  C   C2        1.0  0.5985949952022906  0.9307177836968564  0.2243247182535696  1.0000
  C   C3        1.0  0.9577842539597441  0.28162374574013427  0.5851705435388226  1.0000
  C   C4        1.0  0.042216489973107216  0.7183756713350815  0.4148309259343959  1.0000
  C   C5        1.0  0.8098236570340801  0.3237212354714315  0.18856664793460706  1.0000
  C   C6        1.0  0.19018010137433808  0.6762813326964973  0.8114319040595743  1.0000
  C   C7        1.0  0.6871558606695273  0.4076319718424699  0.21363540905089448  1.0000
  C   C8        1.0  0.3128510784134447  0.592370704401162  0.7863682358852271  1.0000
  C   C9        1.0  0.048615783952321585  0.1696702118066042  0.14937019605044805  1.0000
  C   C10       1.0  0.951382895122329  0.8303281238227455  0.8506308422880761  1.0000
  C   C11       1.0  0.9939716135909433  0.27362806543248297  0.04701498781884081  1.0000
  C   C12       1.0  0.00602695602724171  0.7263723334801496  0.9529827683762233  1.0000
  C   C13       1.0  0.5156876469601243  0.4479423178233828  0.3565756556199489  1.0000
  C   C14       1.0  0.4843195070071998  0.5520561280378471  0.6434283791914976  1.0000
  C   C15       1.0  0.26780611905466867  0.14473477594144407  0.7631815771002904  1.0000
  C   C16       1.0  0.7321934598009676  0.8552667870384811  0.23682196905254202  1.0000
  C   C17       1.0  0.4591782375120274  0.5683444561904452  0.2661209870894438  1.0000
  C   C18       1.0  0.5408246274460423  0.4316550477660711  0.7338847597372008  1.0000
  C   C19       1.0  0.6345429267212737  0.5243709444076785  0.11580206735175834  1.0000
  C   C20       1.0  0.3654617853330961  0.4756337972229402  0.8841993104402729  1.0000
  C   C21       1.0  0.8720540084611346  0.35424070450878276  0.06530416476965675  1.0000
  C   C22       1.0  0.1279487980278731  0.6457597346889585  0.9346942076030798  1.0000
  C   C23       1.0  0.7009781608019523  0.6889568908244855  0.7812587911132665  1.0000
  C   C24       1.0  0.2990204128448184  0.31104361190398316  0.2187451394933787  1.0000
  C   C25       1.0  0.8103452373466951  0.5985599481495427  0.7548265704960498  1.0000
  C   C26       1.0  0.1896522204837225  0.40144152794908183  0.2451726983033565  1.0000
  C   C27       1.0  0.811175677920076  0.4680681780180576  0.9631092364935367  1.0000
  C   C28       1.0  0.1888269675495522  0.5319354376741998  0.03688906398739531  1.0000
  C   C29       1.0  0.6971002017360064  0.5549095308136884  0.9888375463815888  1.0000
  C   C30       1.0  0.30290355839894545  0.4450930818467354  0.011163651788983564  1.0000
  C   C31       1.0  0.05889281470777519  0.3455288113144731  0.6488380525797124  1.0000
  C   C32       1.0  0.9411046448491759  0.6544727092766466  0.3511638623960919  1.0000
  C   C33       1.0  0.9782369411524953  0.1440310077323517  0.2678927137706849  1.0000
  C   C34       1.0  0.021762689266047585  0.855969442036347  0.7321076221304917  1.0000
  C   C35       1.0  0.4229352189347609  0.9589968575846439  0.8874841876666577  1.0000
  C   C36       1.0  0.5770627763942714  0.0409940499733921  0.11251649685048189  1.0000
  C   C37       1.0  0.31381944446671634  0.9236970614719479  0.980372753661406  1.0000
  C   C38       1.0  0.6861783904184549  0.0762970374114289  0.019628741022735596  1.0000
  C   C39       1.0  0.5203263179804409  0.10191067326622522  0.6768083672401417  1.0000
  C   C40       1.0  0.47966929160265426  0.8980855354966337  0.3231935064762934  1.0000
  C   C41       1.0  0.1852911088544644  0.9998698619115841  0.9565537784582643  1.0000
  C   C42       1.0  0.8147097978243066  0.00012642316161759823  0.04345040908314962  1.0000
  C   C43       1.0  0.5196504771538315  0.6061509750252368  0.14498936628212522  1.0000
  C   C44       1.0  0.4803546119552849  0.3938463893901342  0.8550142373946271  1.0000
  S   S1        1.0  0.24335987103062  0.29763945926831065  0.6316406425879746  1.0000
  S   S2        1.0  0.7566418276992054  0.7023621609312514  0.36836541680068524  1.0000
  N   N1        1.0  0.6266334508874394  0.37113701410049055  0.33149586707584416  1.0000
  N   N2        1.0  0.3733703098230308  0.6288656133907722  0.6685062131535273  1.0000
  N   N3        1.0  0.862040313961586  0.21825809724170134  0.2864694502576625  1.0000
  N   N4        1.0  0.13796032339236317  0.7817434572709628  0.7135331473660924  1.0000
  N   N5        1.0  0.6438163313029719  0.6667396788507246  0.8966660164792513  1.0000
  N   N6        1.0  0.3561864241986327  0.3332618883890746  0.10333644820393317  1.0000
  N   N7        1.0  0.8661491153027396  0.4903836379487527  0.8443174593721775  1.0000
  N   N8        1.0  0.13385046125084438  0.5096178657078453  0.1556825585454645  1.0000
  N   N9        1.0  0.16214554120910657  0.10882429228187357  0.8518237155677465  1.0000
  N   N10       1.0  0.8378550972958648  0.8911772918924542  0.14818064617359977  1.0000
  O   O1        1.0  0.995726869004848  0.17357713321644747  0.5534699478380175  1.0000
  O   O2        1.0  0.0042800654740204926  0.8264254243805239  0.4465266406277235  1.0000
  O   O3        1.0  0.7510193466339388  0.9401590609097142  0.5091291645008267  1.0000
  O   O4        1.0  0.24897917142133247  0.059842451214144894  0.4908718019459001  1.0000
  O   O5        1.0  0.8346761334606256  0.341674127759056  0.5676862204438109  1.0000
  O   O6        1.0  0.1653247187776756  0.6583231963712065  0.4323167670552761  1.0000
  O   O7        1.0  0.646573995451284  0.08844812305257929  0.7102972212785443  1.0000
  O   O8        1.0  0.3534219327175022  0.9115416437362642  0.28969950386870363  1.0000
  O   O9        1.0  0.48919379699921706  0.14196959500090858  0.5606151406863517  1.0000
  O   O10       1.0  0.5107967700406421  0.858042441118549  0.4393848753346176  1.0000
