data_image0
_chemical_formula_structural       Al4H12C38N2O22
_chemical_formula_sum              "Al4 H12 C38 N2 O22"
_cell_length_a       6.663765765693046
_cell_length_b       18.394045432486546
_cell_length_c       22.31121816360002
_cell_angle_alpha    86.76037727547705
_cell_angle_beta     86.70402773612572
_cell_angle_gamma    87.10170273497437

_space_group_name_H-M_alt    "P 1"
_space_group_IT_number       1

loop_
  _space_group_symop_operation_xyz
  'x, y, z'

loop_
  _atom_site_type_symbol
  _atom_site_label
  _atom_site_symmetry_multiplicity
  _atom_site_fract_x
  _atom_site_fract_y
  _atom_site_fract_z
  _atom_site_occupancy
  Al  Al1       1.0  0.7710572013718461  0.2662140501182933  0.2590353455715472  1.0000
  Al  Al2       1.0  0.22897776970456352  0.7337429026521536  0.7409651142781328  1.0000
  Al  Al3       1.0  0.2699062584459213  0.2670834950248563  0.2596475500735878  1.0000
  Al  Al4       1.0  0.7301325162203227  0.7328739801004291  0.7403900466378204  1.0000
  H   H1        1.0  0.15968989770097156  0.10835396117905564  0.9512487507556528  1.0000
  H   H2        1.0  0.8400758623717407  0.8916611687302874  0.048770188461709586  1.0000
  H   H3        1.0  0.6342515673085387  0.09085397833390371  0.9532413932804855  1.0000
  H   H4        1.0  0.3655308615698871  0.9091512501028379  0.04681635390249986  1.0000
  H   H5        1.0  0.46208416140254377  0.9880793590082532  0.9303274771051518  1.0000
  H   H6        1.0  0.34040360781929735  0.9165897598286109  0.9109534927442552  1.0000
  H   H7        1.0  0.5377171804033481  0.0119415623762151  0.0697163194583794  1.0000
  H   H8        1.0  0.6594470783683947  0.08341998735906492  0.0890857441189894  1.0000
  H   H9        1.0  0.526997422875219  0.17558540431704026  0.2842720183502863  1.0000
  H   H10       1.0  0.47305639248706655  0.8244008588959275  0.7158236904414321  1.0000
  H   H11       1.0  0.0013183265434193107  0.3560551947158999  0.28148236609368377  1.0000
  H   H12       1.0  0.998760342166527  0.6439140419249014  0.7185223820218312  1.0000
  C   C1        1.0  0.5277107072661807  0.353259831990279  0.17479110115221627  1.0000
  C   C2        1.0  0.47227731323728517  0.6466685111101428  0.8252090002735314  1.0000
  C   C3        1.0  0.4913046019716347  0.3518470371361602  0.3396115151938517  1.0000
  C   C4        1.0  0.5087917000250782  0.6482332419193497  0.6603040734398036  1.0000
  C   C5        1.0  0.013625618842894495  0.17444435665853322  0.3424859063244128  1.0000
  C   C6        1.0  0.9863200720758415  0.8255397936550823  0.6575609912447786  1.0000
  C   C7        1.0  0.052341840706752386  0.18418553203495241  0.17931708493276227  1.0000
  C   C8        1.0  0.947711583027768  0.8157571507387262  0.8207241560212779  1.0000
  C   C9        1.0  0.875263475042466  0.03359191377529672  0.9605811411907297  1.0000
  C   C10       1.0  0.12456108721693938  0.9664223397664032  0.03943533953595589  1.0000
  C   C11       1.0  0.08926090542718162  0.06026709159571203  0.9724725851552094  1.0000
  C   C12       1.0  0.910530251251849  0.939746260539842  0.027551510473976668  1.0000
  C   C13       1.0  0.0623125776253275  0.13750652983826234  0.12969430898377243  1.0000
  C   C14       1.0  0.9376561457063702  0.8624736777271309  0.8703242527889756  1.0000
  C   C15       1.0  0.8238143549247141  0.0205027294735984  0.029567045448771992  1.0000
  C   C16       1.0  0.17597980123484547  0.9795095160943674  0.9704588582974975  1.0000
  C   C17       1.0  0.037267070961959796  0.0484121908569435  0.0429344742486464  1.0000
  C   C18       1.0  0.9625487497026555  0.9515944845744074  0.9570891849672091  1.0000
  C   C19       1.0  0.061333929190467984  0.09675547662675402  0.0884368974301637  1.0000
  C   C20       1.0  0.9385591436036906  0.9032300607743624  0.9115827748722365  1.0000
  C   C21       1.0  0.9873179607320707  0.8793122868683839  0.6080951985752705  1.0000
  C   C22       1.0  0.012511526051937907  0.12063928639350512  0.3919344239038979  1.0000
  C   C23       1.0  0.991730782913336  0.925713218020015  0.5664082393678525  1.0000
  C   C24       1.0  0.007844298499811914  0.07420601281910422  0.43360396297300946  1.0000
  C   C25       1.0  0.996919259084528  0.9765260368231599  0.5208958817746207  1.0000
  C   C26       1.0  0.0024472412221144125  0.023380750602584002  0.47910639816230105  1.0000
  C   C27       1.0  0.5246454158780978  0.4001461877786738  0.1209323369788393  1.0000
  C   C28       1.0  0.4754568549552829  0.5998092956359999  0.879075451720453  1.0000
  C   C29       1.0  0.5157139568181819  0.43868638704530855  0.07438296618860107  1.0000
  C   C30       1.0  0.4846334128890534  0.5612709830717011  0.9256173108002695  1.0000
  C   C31       1.0  0.5056810156001603  0.4807414361975404  0.023462894855981603  1.0000
  C   C32       1.0  0.49505090001709123  0.5192213926173394  0.9765284801516285  1.0000
  C   C33       1.0  0.4848958820524415  0.39833541841396425  0.3895723922698622  1.0000
  C   C34       1.0  0.5153384328352216  0.6018797406050567  0.6102389410059033  1.0000
  C   C35       1.0  0.4901414097319474  0.43767422188651756  0.43200922371936906  1.0000
  C   C36       1.0  0.5103910872409259  0.5626008194779716  0.567746907152717  1.0000
  C   C37       1.0  0.49674336624729415  0.4804473211624937  0.4785178798779555  1.0000
  C   C38       1.0  0.5040545922967397  0.5198703528691055  0.5212044090944659  1.0000
  N   N1        1.0  0.3598228996024631  0.9504776653220406  0.9445989149086812  1.0000
  N   N2        1.0  0.6400051946668411  0.049531119608190004  0.05544287886841911  1.0000
  O   O1        1.0  0.32431511685341974  0.3306343579433459  0.32371160743080907  1.0000
  O   O2        1.0  0.6757948904442727  0.6693624871912577  0.6762793879580115  1.0000
  O   O3        1.0  0.6992240121596395  0.3306710784204583  0.19225413086826393  1.0000
  O   O4        1.0  0.3007916504830844  0.6692146155446822  0.8076987439056962  1.0000
  O   O5        1.0  0.8769316620018869  0.19820254058619471  0.20313210641904786  1.0000
  O   O6        1.0  0.1231269421742169  0.8017112376008699  0.7969426809430756  1.0000
  O   O7        1.0  0.6663178709384354  0.33690499899089593  0.3160350385420756  1.0000
  O   O8        1.0  0.33376425148411926  0.6631176104518417  0.6839044486170778  1.0000
  O   O9        1.0  0.8418687607270031  0.1982090489400932  0.3256486185015746  1.0000
  O   O10       1.0  0.1580977476591627  0.8017886044686552  0.6743808203970545  1.0000
  O   O11       1.0  0.3570609732708334  0.3392008638853028  0.20015200307200584  1.0000
  O   O12       1.0  0.6429531103687081  0.6607447647560819  0.7998895742370493  1.0000
  O   O13       1.0  0.525444647710856  0.22288567509170318  0.26271079300627054  1.0000
  O   O14       1.0  0.47455373465685824  0.7770654900327473  0.7373338553518493  1.0000
  O   O15       1.0  0.1857030241790483  0.19223961239310938  0.3201191933742678  1.0000
  O   O16       1.0  0.814261114033151  0.8077204625026084  0.6799321792219359  1.0000
  O   O17       1.0  0.2166758193292182  0.206780073213217  0.19600413425838065  1.0000
  O   O18       1.0  0.7833838220363843  0.7931974426420114  0.804004943161594  1.0000
  O   O19       1.0  0.013517961178507707  0.3107684286376795  0.261001368518059  1.0000
  O   O20       1.0  0.9865379785148605  0.6891954878624986  0.7390151045747614  1.0000
  O   O21       1.0  0.731144622827962  0.06673255108582053  0.9247702925572765  1.0000
  O   O22       1.0  0.26864627681300146  0.933304228433457  0.07527334629586588  1.0000
