data_image0
_chemical_formula_structural       Cu4H68C88I4N12O4
_chemical_formula_sum              "Cu4 H68 C88 I4 N12 O4"
_cell_length_a       12.58243832721469
_cell_length_b       13.470393601477898
_cell_length_c       17.767909310456226
_cell_angle_alpha    109.98216862937983
_cell_angle_beta     90.00572481767163
_cell_angle_gamma    117.83461023944021

_space_group_name_H-M_alt    "P 1"
_space_group_IT_number       1

loop_
  _space_group_symop_operation_xyz
  'x, y, z'

loop_
  _atom_site_type_symbol
  _atom_site_label
  _atom_site_symmetry_multiplicity
  _atom_site_fract_x
  _atom_site_fract_y
  _atom_site_fract_z
  _atom_site_occupancy
  Cu  Cu1       1.0  0.45207772073768376  0.9963075868505695  0.935144446411819  1.0000
  Cu  Cu2       1.0  0.45574161250904416  0.003583061799616899  0.5647830817101324  1.0000
  Cu  Cu3       1.0  0.5479218344991921  0.0036887582274332  0.06485871240956703  1.0000
  Cu  Cu4       1.0  0.5442597773594074  0.9964169532624468  0.4352182284459972  1.0000
  H   H1        1.0  0.3292200515287149  0.05536641073693721  0.8299454521792387  1.0000
  H   H2        1.0  0.2738505017854961  0.9447892797403981  0.6700394716292524  1.0000
  H   H3        1.0  0.6707788473565871  0.9446318014810019  0.17005369517938357  1.0000
  H   H4        1.0  0.7261499923118819  0.05520894403071  0.3299585531762049  1.0000
  H   H5        1.0  0.261066158493712  0.20541817452328814  0.8479081715965223  1.0000
  H   H6        1.0  0.05566872828812555  0.7948899834204326  0.6521400728464715  1.0000
  H   H7        1.0  0.7389357065502437  0.7945827915389428  0.1520894489694271  1.0000
  H   H8        1.0  0.9443325670787815  0.20511461198886846  0.34785962804839  1.0000
  H   H9        1.0  0.46686308323127423  0.39590075769380206  0.0950251677395926  1.0000
  H   H10       1.0  0.07072236456092894  0.6041617160283721  0.4050216078344563  1.0000
  H   H11       1.0  0.533135478860352  0.6040983706136701  0.9049736577609766  1.0000
  H   H12       1.0  0.9292756335989054  0.3958410532797885  0.5949781754128125  1.0000
  H   H13       1.0  0.5280114584015081  0.23630647269349234  0.06619917037279072  1.0000
  H   H14       1.0  0.2914521333232684  0.7636183966054588  0.4337863502636808  1.0000
  H   H15       1.0  0.47198539020460833  0.7636908177587715  0.933800860091438  1.0000
  H   H16       1.0  0.708544496762613  0.23638163623837732  0.5662132759319933  1.0000
  H   H17       1.0  0.18534530871856691  0.3124407682678764  0.878711571080075  1.0000
  H   H18       1.0  0.8727387117843436  0.6877735452931263  0.6213930160514283  1.0000
  H   H19       1.0  0.8146547331843337  0.6875565511175381  0.12128565298671391  1.0000
  H   H20       1.0  0.12725882556312482  0.3122283021489168  0.3786076503304799  1.0000
  H   H21       1.0  0.1983853384428115  0.6321691909151212  0.054196516897270855  1.0000
  H   H22       1.0  0.5662240582443799  0.36774937371792754  0.44593795627386623  1.0000
  H   H23       1.0  0.8016176552555976  0.36783085318054287  0.9458019868323718  1.0000
  H   H24       1.0  0.4337758604306856  0.6322524677466248  0.5540632714427219  1.0000
  H   H25       1.0  0.47093847421196233  0.6005135423674944  0.20978571671214047  1.0000
  H   H26       1.0  0.8703926759256787  0.39948066888312883  0.29037583691459906  1.0000
  H   H27       1.0  0.5290600792617823  0.39948556845955363  0.7902147926617434  1.0000
  H   H28       1.0  0.12960656549854827  0.6005166388988884  0.7096225097198785  1.0000
  H   H29       1.0  0.5540620918635994  0.7674113988965415  0.3498400553908709  1.0000
  H   H30       1.0  0.7865748103211985  0.23269007117602317  0.15028046112892926  1.0000
  H   H31       1.0  0.4459379328035312  0.23258588552801746  0.6501605364225541  1.0000
  H   H32       1.0  0.2134205670915321  0.7673090456787365  0.849719486895758  1.0000
  H   H33       1.0  0.39439289141790107  0.9440694784480925  0.2892874123853418  1.0000
  H   H34       1.0  0.4502598511363374  0.056044704903818916  0.21077242503398716  1.0000
  H   H35       1.0  0.6056077037171406  0.0559305366641993  0.7107138977562644  1.0000
  H   H36       1.0  0.5497390333858192  0.9439534781800704  0.7892295287801689  1.0000
  H   H37       1.0  0.31422800360651587  0.7933740529531264  0.14660626640445432  1.0000
  H   H38       1.0  0.5208173811446883  0.2066043657519714  0.3534895642680454  1.0000
  H   H39       1.0  0.6857730437230032  0.206626866544859  0.8533958444758273  1.0000
  H   H40       1.0  0.4791800465472348  0.7933956728684562  0.6465095006510426  1.0000
  H   H41       1.0  0.008805939667027474  0.2629175977572231  0.8310291936649181  1.0000
  H   H42       1.0  0.7455366819059818  0.7371985718007539  0.6690310970981345  1.0000
  H   H43       1.0  0.9911954731824507  0.7370824639193216  0.16896762616235614  1.0000
  H   H44       1.0  0.2544628971027905  0.2628041799265333  0.330970370051496  1.0000
  H   H45       1.0  0.8628885014543215  0.24672386661307397  0.7281795323996294  1.0000
  H   H46       1.0  0.6158924091846599  0.7533255442881525  0.7718924188234981  1.0000
  H   H47       1.0  0.13711131331045576  0.7532761776834889  0.2718189712719195  1.0000
  H   H48       1.0  0.3841090960845932  0.24667629124914467  0.22810937021323954  1.0000
  H   H49       1.0  0.9810447326053192  0.6280515553979527  0.854731440176238  1.0000
  H   H50       1.0  0.35283048704982883  0.37194429969143533  0.6453123610455125  1.0000
  H   H51       1.0  0.018954627092348554  0.371947578686104  0.14526682404774505  1.0000
  H   H52       1.0  0.6471714790317903  0.6280584577119869  0.3546885448565789  1.0000
  H   H53       1.0  0.13161428869175043  0.6469651774633008  0.9528086356149503  1.0000
  H   H54       1.0  0.4845196916403083  0.3531030292918445  0.5472595423653602  1.0000
  H   H55       1.0  0.8683867787461708  0.3530357828223458  0.047189546227585304  1.0000
  H   H56       1.0  0.5154814797079085  0.6468997281617987  0.4527413635222147  1.0000
  H   H57       1.0  0.7823686815182855  0.5492176361222223  0.7894571512364765  1.0000
  H   H58       1.0  0.233097604171455  0.45075427448377064  0.7104296591491562  1.0000
  H   H59       1.0  0.217631133246492  0.45078240817434084  0.21054135243507235  1.0000
  H   H60       1.0  0.7669055020551383  0.5492475842603144  0.28956988475220413  1.0000
  H   H61       1.0  0.7382582616123656  0.48193171945246865  0.6805864297704362  1.0000
  H   H62       1.0  0.2559933766394167  0.5178268501689729  0.8193183764346944  1.0000
  H   H63       1.0  0.2617415502797797  0.5180683190172886  0.3194126351922223  1.0000
  H   H64       1.0  0.7440064266348472  0.482173170820353  0.18068237240128587  1.0000
  H   H65       1.0  0.8950950275831033  0.5929711242331663  0.727220254847879  1.0000
  H   H66       1.0  0.3019822086899637  0.40689881646817133  0.7726826537706589  1.0000
  H   H67       1.0  0.10490512397534248  0.4070280039738634  0.2727785706817373  1.0000
  H   H68       1.0  0.6980199816571543  0.5931012101972896  0.22731753381778222  1.0000
  C   C1        1.0  0.3575188351575633  0.13228233782753307  0.8881112816391836  1.0000
  C   C2        1.0  0.225185570665758  0.8678644814003463  0.6118846684416186  1.0000
  C   C3        1.0  0.6424811952548168  0.8677149582506446  0.11188818759202951  1.0000
  C   C4        1.0  0.7748139015600871  0.1321364673321312  0.3881146359540822  1.0000
  C   C5        1.0  0.31923795796731724  0.21669350015184824  0.899036462285075  1.0000
  C   C6        1.0  0.10250696328538574  0.7835132806317022  0.6009960962344111  1.0000
  C   C7        1.0  0.680762648658238  0.7833065382676809  0.10096260269209988  1.0000
  C   C8        1.0  0.8974938712691554  0.2164903929114814  0.3990044877950966  1.0000
  C   C9        1.0  0.35619665220823293  0.3137998678387889  0.974908767598848  1.0000
  C   C10       1.0  0.042255599738915316  0.6863514955077932  0.5251523007427253  1.0000
  C   C11       1.0  0.6438035022228448  0.6861992661950468  0.025089496639658638  1.0000
  C   C12       1.0  0.9577455744819261  0.31365126777266283  0.47484804385374  1.0000
  C   C13       1.0  0.43464460117051834  0.321630409236164  0.03551657343482619  1.0000
  C   C14       1.0  0.11280880024560955  0.6784516060165942  0.4645221791438205  1.0000
  C   C15       1.0  0.5653560112002934  0.6783696408369835  0.9644813689601366  1.0000
  C   C16       1.0  0.8871911270473447  0.3215502529283896  0.5354773646994462  1.0000
  C   C17       1.0  0.4690007213363501  0.23363784996857362  0.0196778824296402  1.0000
  C   C18       1.0  0.23515718000558647  0.7663908676275356  0.48032361486403385  1.0000
  C   C19       1.0  0.5309945320576901  0.7663594289305208  0.9803232705877536  1.0000
  C   C20       1.0  0.76484116069318  0.23361099724470333  0.5196753676590833  1.0000
  C   C21       1.0  0.3132163912389744  0.40332734302347023  0.9929378837971045  1.0000
  C   C22       1.0  0.9097853924191809  0.5967371427012083  0.5072343547157276  1.0000
  C   C23       1.0  0.6867817157855427  0.5966708750715028  0.007060702255891674  1.0000
  C   C24       1.0  0.09021543351747142  0.4032665133615439  0.4927679131871019  1.0000
  C   C25       1.0  0.22250295908138176  0.38844030065779134  0.9376165282810477  1.0000
  C   C26       1.0  0.8339213164344483  0.6117082541117327  0.5625022211987557  1.0000
  C   C27       1.0  0.7774959455491768  0.6115579232137663  0.06238149649536952  1.0000
  C   C28       1.0  0.16607826544694146  0.38829450344236704  0.4374986846597723  1.0000
  C   C29       1.0  0.17852732042325664  0.47077651617064475  0.9577505594886305  1.0000
  C   C30       1.0  0.7076254862912492  0.5292861563405111  0.5423548527182123  1.0000
  C   C31       1.0  0.8214724885962568  0.5292235164722996  0.04224906676513031  1.0000
  C   C32       1.0  0.2923733037293701  0.4707166070906155  0.4576454918346828  1.0000
  C   C33       1.0  0.2315058517761912  0.567646673895922  0.034127784068118644  1.0000
  C   C34       1.0  0.6638492548093564  0.43230365530948234  0.466021858866988  1.0000
  C   C35       1.0  0.7684968022559175  0.4323542804624693  0.9658709590945734  1.0000
  C   C36       1.0  0.3361510064046342  0.5676972817191627  0.5339785681254484  1.0000
  C   C37       1.0  0.3246388479964751  0.5789103813003464  0.085459669403285  1.0000
  C   C38       1.0  0.7457520933846098  0.4210220716271422  0.4147341542236732  1.0000
  C   C39       1.0  0.6753633452232749  0.4210896511919275  0.9145399568940538  1.0000
  C   C40       1.0  0.2542477156349037  0.5789779610158022  0.5852654720300878  1.0000
  C   C41       1.0  0.3817236021599654  0.6797653326881701  0.16648364044073108  1.0000
  C   C42       1.0  0.7019793434271264  0.3201746692497807  0.3336934975062108  1.0000
  C   C43       1.0  0.6182782427755882  0.32023559258639983  0.8335179091629643  1.0000
  C   C44       1.0  0.2980195612034322  0.6798235546217769  0.6663045272702066  1.0000
  C   C45       1.0  0.4538254006066751  0.6765689548862781  0.22504072280676019  1.0000
  C   C46       1.0  0.777245258748614  0.3234211500984969  0.27513053619766487  1.0000
  C   C47       1.0  0.5461739476004794  0.32343015589054863  0.7749597865816471  1.0000
  C   C48       1.0  0.22275444061535415  0.6765770737228325  0.724867488593276  1.0000
  C   C49       1.0  0.49983596006370584  0.7683645951133613  0.3023991397541721  1.0000
  C   C50       1.0  0.7314203504003559  0.23170435575946868  0.1977371465937736  1.0000
  C   C51       1.0  0.5001645196705269  0.23163359952369691  0.6976016915068259  1.0000
  C   C52       1.0  0.2685775237407881  0.7682965755930411  0.8022638416461949  1.0000
  C   C53       1.0  0.4112339341514469  0.867477114744517  0.2683450844090842  1.0000
  C   C54       1.0  0.5437080329301766  0.1325841845349771  0.23174352558415737  1.0000
  C   C55       1.0  0.5887687055175236  0.13252381047982448  0.7316564652091345  1.0000
  C   C56       1.0  0.45628972006490187  0.8674149146886805  0.7682581063574149  1.0000
  C   C57       1.0  0.3637705474941411  0.7805032846872775  0.1894251166244842  1.0000
  C   C58       1.0  0.5832599407449308  0.21948238767699735  0.31069904315972263  1.0000
  C   C59       1.0  0.6362325501145634  0.21949855657637576  0.8105761111501909  1.0000
  C   C60       1.0  0.41673815766170447  0.7805158129375441  0.6893012267665953  1.0000
  C   C61       1.0  0.08338430887820888  0.4568921221640992  0.9002124312053043  1.0000
  C   C62       1.0  0.6262907848396396  0.5432023636569666  0.5998338429410526  1.0000
  C   C63       1.0  0.9166191456325664  0.5431088437976896  0.09978518938969222  1.0000
  C   C64       1.0  0.3737103750180566  0.45680037048943944  0.4001693081109395  1.0000
  C   C65       1.0  0.005706211541365687  0.34436399222808234  0.8356966277895099  1.0000
  C   C66       1.0  0.6610246755181635  0.65572686498367  0.6643443790555993  1.0000
  C   C67       1.0  0.9942964539812635  0.655636985437546  0.164299870208751  1.0000
  C   C68       1.0  0.33897694227927383  0.3442767852020482  0.3356584501528631  1.0000
  C   C69       1.0  0.9226681125476401  0.33365708383653464  0.7779670471015837  1.0000
  C   C70       1.0  0.5887146097341116  0.6664050928031315  0.7220840728192003  1.0000
  C   C71       1.0  0.07733204762868698  0.6663420618509193  0.22203009455471096  1.0000
  C   C72       1.0  0.41128610080173905  0.3335967427843869  0.27791771620301386  1.0000
  C   C73       1.0  0.9130503810731982  0.4358582142678317  0.7839699825209794  1.0000
  C   C74       1.0  0.4769502095562431  0.5641732517223376  0.7160834563609415  1.0000
  C   C75       1.0  0.08694943369157927  0.5641418300287313  0.21602852115057664  1.0000
  C   C76       1.0  0.523052882307205  0.43582857788770485  0.2839188939959528  1.0000
  C   C77       1.0  0.9872710293564141  0.547789703285183  0.8484795555148212  1.0000
  C   C78       1.0  0.4392877304654306  0.45224508859605805  0.6515591493388586  1.0000
  C   C79       1.0  0.012729919808066401  0.4522094306984243  0.15151870873820886  1.0000
  C   C80       1.0  0.5607150246043417  0.5477576571035243  0.3484428791599684  1.0000
  C   C81       1.0  0.07149233271348977  0.5574264866249692  0.9052742421549883  1.0000
  C   C82       1.0  0.5139110899144227  0.4426520000550339  0.5947814969234814  1.0000
  C   C83       1.0  0.9285074791786555  0.4425735518447879  0.0947248228076631  1.0000
  C   C84       1.0  0.48609007856116193  0.5573507515718036  0.4052199702551961  1.0000
  C   C85       1.0  0.8111576450484534  0.5171845183604589  0.7317881154405728  1.0000
  C   C86       1.0  0.2937609524047318  0.4826917138793406  0.7681560066205864  1.0000
  C   C87       1.0  0.18884216684369184  0.48281552010929113  0.2682109495220857  1.0000
  C   C88       1.0  0.7062401006700441  0.5173092172722631  0.231844981677483  1.0000
  I   I1        1.0  0.693393969210831  0.08544920580172287  0.9644280434663988  1.0000
  I   I2        1.0  0.6079811223793212  0.9145401497531152  0.5356478089403397  1.0000
  I   I3        1.0  0.30660682641780573  0.9145416719233311  0.03557424003330564  1.0000
  I   I4        1.0  0.3920237983704382  0.08546533818736181  0.4643538153335031  1.0000
  N   N1        1.0  0.43002912250985753  0.1385096594614907  0.947301222814723  1.0000
  N   N2        1.0  0.29141941454211906  0.8615226171048886  0.5526874490669587  1.0000
  N   N3        1.0  0.5699697677575557  0.861488535276017  0.05269960841722111  1.0000
  N   N4        1.0  0.7085769847421516  0.138473774788487  0.44731121936749235  1.0000
  N   N5        1.0  0.47779518704721374  0.8626795592431834  0.32528984764120855  1.0000
  N   N6        1.0  0.6150684282180165  0.13741045440797  0.17480043523606537  1.0000
  N   N7        1.0  0.5222032424078337  0.1373177136282067  0.6747118667253817  1.0000
  N   N8        1.0  0.3849294401778706  0.8625904652909142  0.8252016755861151  1.0000
  N   N9        1.0  0.3636537475456834  0.49734859471487886  0.06566538224485192  1.0000
  N   N10       1.0  0.8662946056004516  0.502623802972046  0.43454789407073957  1.0000
  N   N11       1.0  0.636345491005919  0.5026487072403327  0.9343335256807282  1.0000
  N   N12       1.0  0.1337049676630571  0.49737893710162245  0.5654546956611101  1.0000
  O   O1        1.0  0.8291177926090186  0.41733119232448257  0.7249172066141372  1.0000
  O   O2        1.0  0.41156876668452463  0.5826391318185031  0.7751622153094149  1.0000
  O   O3        1.0  0.17088076660998291  0.5826679301561839  0.2750821801775346  1.0000
  O   O4        1.0  0.5884331936518379  0.4173636139313004  0.22483981317488855  1.0000
