data_image0
_chemical_formula_structural       Mn2H48C44N10O8
_chemical_formula_sum              "Mn2 H48 C44 N10 O8"
_cell_length_a       9.942432812652655
_cell_length_b       10.445312194918527
_cell_length_c       10.933215312577984
_cell_angle_alpha    96.8000030865156
_cell_angle_beta     103.43037276525735
_cell_angle_gamma    99.41113596364231

_space_group_name_H-M_alt    "P 1"
_space_group_IT_number       1

loop_
  _space_group_symop_operation_xyz
  'x, y, z'

loop_
  _atom_site_type_symbol
  _atom_site_label
  _atom_site_symmetry_multiplicity
  _atom_site_fract_x
  _atom_site_fract_y
  _atom_site_fract_z
  _atom_site_occupancy
  Mn  Mn1       1.0  0.5000456565029339  0.999989411089949  0.5000662116514577  1.0000
  Mn  Mn2       1.0  0.4999933211560687  0.9999897131785644  1.0737851489691828e-05  1.0000
  H   H1        1.0  0.5187704938874731  0.2980549423406416  0.3663815566224714  1.0000
  H   H2        1.0  0.48122759090367845  0.701944116868532  0.6336185540692372  1.0000
  H   H3        1.0  0.5829402256443145  0.43929585285900435  0.30145052125637767  1.0000
  H   H4        1.0  0.4170560009582545  0.5607041917014614  0.6985493075813383  1.0000
  H   H5        1.0  0.6580060832768596  0.1814552166284145  0.26808746671697764  1.0000
  H   H6        1.0  0.34199345353790994  0.8185458081403144  0.7319140897251092  1.0000
  H   H7        1.0  0.2903943330876544  0.05700068476581071  0.6716062026062988  1.0000
  H   H8        1.0  0.7095992070204035  0.9430013267691779  0.32839693895284233  1.0000
  H   H9        1.0  0.0746125823537156  0.9479662315706037  0.7454581775237019  1.0000
  H   H10       1.0  0.92538819093064  0.052030862084819794  0.25453679174250965  1.0000
  H   H11       1.0  0.14797510790086926  0.311814335235816  0.10545705970601203  1.0000
  H   H12       1.0  0.8520246265067255  0.6881827557542122  0.8945422622991192  1.0000
  H   H13       1.0  0.256097031772441  0.32973720427313674  0.7085305101171644  1.0000
  H   H14       1.0  0.7439000181393353  0.6702618551121803  0.2914702959053131  1.0000
  H   H15       1.0  0.3561484722769989  0.2498956433049883  0.8238371874944479  1.0000
  H   H16       1.0  0.6438552160338704  0.7501102981160772  0.17616397825003832  1.0000
  H   H17       1.0  0.9033173853969954  0.22851926338044853  0.4697664931025687  1.0000
  H   H18       1.0  0.09668255758273152  0.7714788104774328  0.5302338994431326  1.0000
  H   H19       1.0  0.7058932808663627  0.4818443466801625  0.7762050286134967  1.0000
  H   H20       1.0  0.29410874485007804  0.5181586448927362  0.22379544954412015  1.0000
  H   H21       1.0  0.17310458359978037  0.041371141986530816  0.4486586317157944  1.0000
  H   H22       1.0  0.8269005447560784  0.9586318476371647  0.5513415891535801  1.0000
  H   H23       1.0  0.08783741376208101  0.12744024432029735  0.54688810963809  1.0000
  H   H24       1.0  0.9121654372622601  0.8725617634982258  0.45311151700021696  1.0000
  H   H25       1.0  0.28814856722572557  0.25354201816720223  0.39703028055155454  1.0000
  H   H26       1.0  0.7118561419871908  0.7464590043000284  0.6029696279407448  1.0000
  H   H27       1.0  0.20403235966841748  0.344267619777554  0.49428404895345335  1.0000
  H   H28       1.0  0.7959717348074165  0.6557353707326641  0.5057159528946544  1.0000
  H   H29       1.0  0.10321588971579838  0.2359995741008234  0.35491536524434525  1.0000
  H   H30       1.0  0.8967890290685858  0.7640024319446325  0.6450846994364883  1.0000
  H   H31       1.0  0.9510636531433789  0.5618208754839743  0.7617814179511985  1.0000
  H   H32       1.0  0.04893795442946921  0.4381801496428466  0.23821783347730027  1.0000
  H   H33       1.0  0.04717164556744539  0.43679720500949054  0.6037005553490149  1.0000
  H   H34       1.0  0.9528285089824419  0.5632018538473887  0.3962981646811556  1.0000
  H   H35       1.0  0.8779039337527337  0.05925097465865291  0.7678682438299876  1.0000
  H   H36       1.0  0.12209662496341882  0.9407451318666135  0.23213114100786933  1.0000
  H   H37       1.0  0.807321518050223  0.3812377294969451  0.24132392759678117  1.0000
  H   H38       1.0  0.19267822833600687  0.6187642788500084  0.7586777850338396  1.0000
  H   H39       1.0  0.7784524910718529  0.25229427452482883  0.11239124198623071  1.0000
  H   H40       1.0  0.22154828919440916  0.7477077329356022  0.8876106896656498  1.0000
  H   H41       1.0  0.6152589074647921  0.48057327611856226  0.10033691712953192  1.0000
  H   H42       1.0  0.3847395954699522  0.5194277495366961  0.8996644202912879  1.0000
  H   H43       1.0  0.6105879795309618  0.3563530116381487  0.9723683827342244  1.0000
  H   H44       1.0  0.38940866421585696  0.6436489986580158  0.02763358718463849  1.0000
  H   H45       1.0  0.7666372150998341  0.47560621439895107  0.04218862582936107  1.0000
  H   H46       1.0  0.23336025395488488  0.5243948121428375  0.9578124925701917  1.0000
  H   H47       1.0  0.9123639737241476  0.24216853262849727  0.9482702025124826  1.0000
  H   H48       1.0  0.0876365839926621  0.7578275731863898  0.05173009667741721  1.0000
  C   C1        1.0  0.5352378323146567  0.33443632835578546  0.2798771520216691  1.0000
  C   C2        1.0  0.4647594281679445  0.6655637153181503  0.7201228958373138  1.0000
  C   C3        1.0  0.6121265855963715  0.2480489269059802  0.20748730424504208  1.0000
  C   C4        1.0  0.387872951218398  0.7519520978627483  0.7925142521970446  1.0000
  C   C5        1.0  0.30767677520305625  0.14469103351897417  0.6267863887004881  1.0000
  C   C6        1.0  0.692326475990171  0.8553080191263972  0.3732175601536556  1.0000
  C   C7        1.0  0.0894613482135753  0.0285040745318454  0.823435663082407  1.0000
  C   C8        1.0  0.9105383871933693  0.9714930171685695  0.17656274457068125  1.0000
  C   C9        1.0  0.3802333227334671  0.2167762886754829  0.10175649875234435  1.0000
  C   C10       1.0  0.6197674435554674  0.7832208000072498  0.8982448709781254  1.0000
  C   C11       1.0  0.22351521138767785  0.06600586362425528  0.9107634368517029  1.0000
  C   C12       1.0  0.7764851377570066  0.9339892593227858  0.08923579179761987  1.0000
  C   C13       1.0  0.1301480736053691  0.2328437933373451  0.02553049363971379  1.0000
  C   C14       1.0  0.8698520619704622  0.7671503431899254  0.9744722362292253  1.0000
  C   C15       1.0  0.24353498064898096  0.1710916628753196  0.013244776772509678  1.0000
  C   C16       1.0  0.7564651569255431  0.8289024750727166  0.9867561243923508  1.0000
  C   C17       1.0  0.3376125008381692  0.2700816793705982  0.7258584584556973  1.0000
  C   C18       1.0  0.6623857965224857  0.7299183655479595  0.27413906536843774  1.0000
  C   C19       1.0  0.5257648188994751  0.2651865955762602  0.6436067364468772  1.0000
  C   C20       1.0  0.47423844327303744  0.7348173737156571  0.3564005173847988  1.0000
  C   C21       1.0  0.7246480551197578  0.23388602587154145  0.5480953049237985  1.0000
  C   C22       1.0  0.2753554056449374  0.7661140103520694  0.45190880011887924  1.0000
  C   C23       1.0  0.6675561469793647  0.309543887372243  0.6341282280177796  1.0000
  C   C24       1.0  0.3324467000475906  0.6904581176047486  0.3658750560286706  1.0000
  C   C25       1.0  0.8616700438195223  0.2847958548599436  0.5376371689999007  1.0000
  C   C26       1.0  0.138329285422472  0.7152041877513186  0.46236240254957306  1.0000
  C   C27       1.0  0.7510527388232474  0.426943114507189  0.7103380698194359  1.0000
  C   C28       1.0  0.2489470095616823  0.5730588952605373  0.28966181410711306  1.0000
  C   C29       1.0  0.18317726867603307  0.13483505128633064  0.5110074263707746  1.0000
  C   C30       1.0  0.8168284744169012  0.86516597029437  0.48899270114278465  1.0000
  C   C31       1.0  0.19572811925788614  0.24849795949877063  0.4361950389964095  1.0000
  C   C32       1.0  0.8042767985271481  0.751504045836306  0.5638059400364599  1.0000
  C   C33       1.0  0.8871438656851609  0.4716903882043157  0.70165402330359  1.0000
  C   C34       1.0  0.11285753231621949  0.5283096533442659  0.2983450719363817  1.0000
  C   C35       1.0  0.9413725247666135  0.40068780462465275  0.6134661168147206  1.0000
  C   C36       1.0  0.05862722461765911  0.5993142058534532  0.3865328527597854  1.0000
  C   C37       1.0  0.9801279884816406  0.09148222588162011  0.8368441975479546  1.0000
  C   C38       1.0  0.01987132478433299  0.9085128965311852  0.16315664078417313  1.0000
  C   C39       1.0  0.7273378533909208  0.32404691597388086  0.15684886686579352  1.0000
  C   C40       1.0  0.2726629258759914  0.6759550907761633  0.8431539791381228  1.0000
  C   C41       1.0  0.6766681566029931  0.4140154148175839  0.06305365454962701  1.0000
  C   C42       1.0  0.32333220452032657  0.5859846254863754  0.9369479647251854  1.0000
  C   C43       1.0  0.9996093563217769  0.1943668022029854  0.9384327329060514  1.0000
  C   C44       1.0  0.0003907792540473822  0.8056273343242849  0.061569996962887834  1.0000
  N   N1        1.0  0.49394430206616136  0.1682770441793267  0.10372612720554032  1.0000
  N   N2        1.0  0.5060562736253615  0.8317239832547826  0.8962710764976267  1.0000
  N   N3        1.0  0.4440125845077461  0.15095360240644604  0.592125758864782  1.0000
  N   N4        1.0  0.556003248852967  0.8490414901934428  0.4078986995524048  1.0000
  N   N5        1.0  0.3636884115786784  0.0222099729780254  0.31406726558103065  1.0000
  N   N6        1.0  0.6362176281066708  0.9778226712493636  0.6858421526124517  1.0000
  N   N7        1.0  0.37345592887815826  0.9559867327142368  0.22092549253245863  1.0000
  N   N8        1.0  0.6265157511245574  0.0440192660253658  0.7790304807672687  1.0000
  N   N9        1.0  0.3789831899641029  0.8929705681382172  0.12607272280763482  1.0000
  N   N10       1.0  0.6210500188066704  0.1070137145412389  0.8739203479143146  1.0000
  O   O1        1.0  0.32471348969848884  0.004565380555313  0.8906560189605773  1.0000
  O   O2        1.0  0.6752914310845952  0.9954366269109162  0.10934221701618448  1.0000
  O   O3        1.0  0.46912037259503586  0.347516986644088  0.7139395094173014  1.0000
  O   O4        1.0  0.5308721596024881  0.6524899530797229  0.2860530028175462  1.0000
  O   O5        1.0  0.39540253409350606  0.3208163309830923  0.19271443606988473  1.0000
  O   O6        1.0  0.6045961664340709  0.6791807608934733  0.8072846669139795  1.0000
  O   O7        1.0  0.6552149202187392  0.12084399635955378  0.4761277067355608  1.0000
  O   O8        1.0  0.3447864488151211  0.8791511157555834  0.5238845418635381  1.0000
