data_image0
_chemical_formula_structural       Zn12H104C168N16O48
_chemical_formula_sum              "Zn12 H104 C168 N16 O48"
_cell_length_a       15.195893860249553
_cell_length_b       15.19598552826111
_cell_length_c       21.65644909810279
_cell_angle_alpha    89.99974323558256
_cell_angle_beta     89.99976324673004
_cell_angle_gamma    90.00420286319047

_space_group_name_H-M_alt    "P 1"
_space_group_IT_number       1

loop_
  _space_group_symop_operation_xyz
  'x, y, z'

loop_
  _atom_site_type_symbol
  _atom_site_label
  _atom_site_symmetry_multiplicity
  _atom_site_fract_x
  _atom_site_fract_y
  _atom_site_fract_z
  _atom_site_occupancy
  Zn  Zn1       1.0  0.791169304051131  0.20882416372159446  0.2500063103681995  1.0000
  Zn  Zn2       1.0  0.2911505119030693  0.2911401998713501  0.999996821579721  1.0000
  Zn  Zn3       1.0  0.20882786582505727  0.7911668837918525  0.7499995177061081  1.0000
  Zn  Zn4       1.0  0.7088574018148819  0.7088537379545555  0.5000161428711678  1.0000
  Zn  Zn5       1.0  0.8481960208440141  0.23537453904393854  0.09660384714526062  1.0000
  Zn  Zn6       1.0  0.2646454843613455  0.34819571187903625  0.846609243844739  1.0000
  Zn  Zn7       1.0  0.1518040629977264  0.7646306355985217  0.5966129976331018  1.0000
  Zn  Zn8       1.0  0.7353662295717526  0.6517934118498516  0.346616626014459  1.0000
  Zn  Zn9       1.0  0.3481914535998881  0.26464336311197206  0.15339312308729802  1.0000
  Zn  Zn10      1.0  0.2353616553595614  0.8481949356488343  0.9034017313083708  1.0000
  Zn  Zn11      1.0  0.651801043679107  0.735360137630167  0.653397280733742  1.0000
  Zn  Zn12      1.0  0.7646240470099315  0.1518208104425014  0.4034004681113359  1.0000
  H   H1        1.0  0.03544832139981928  0.13076252320717432  0.299945960004699  1.0000
  H   H2        1.0  0.3692698949770871  0.5354600659872516  0.049951419471717905  1.0000
  H   H3        1.0  0.9645465693689345  0.869254532516713  0.7999603637316709  1.0000
  H   H4        1.0  0.6307548229440485  0.46453882253535284  0.5499685052352773  1.0000
  H   H5        1.0  0.5354704172277991  0.3692654862276826  0.9500422257271666  1.0000
  H   H6        1.0  0.13077461666014759  0.035453402953862685  0.7000485058368398  1.0000
  H   H7        1.0  0.4645393475320461  0.6307315411867195  0.4500499673927294  1.0000
  H   H8        1.0  0.8692281239170327  0.9645451979653856  0.20005682651729734  1.0000
  H   H9        1.0  0.1894586019510172  0.1231976218898865  0.3409691034572758  1.0000
  H   H10       1.0  0.37682877444925106  0.6894660202436854  0.0909722003499525  1.0000
  H   H11       1.0  0.8105386694094392  0.8768046981902556  0.8409751385175568  1.0000
  H   H12       1.0  0.6231937184207083  0.31054182292933774  0.5909870278327887  1.0000
  H   H13       1.0  0.6894782130395428  0.3768166774225463  0.9090205005143234  1.0000
  H   H14       1.0  0.1232145316345807  0.18946564165488416  0.6590249249475874  1.0000
  H   H15       1.0  0.31053377725846315  0.6231845567166162  0.40903100384019103  1.0000
  H   H16       1.0  0.8767897761129431  0.810529269136687  0.1590415656795372  1.0000
  H   H17       1.0  0.13939244573338525  0.24952453625993337  0.134750954146412  1.0000
  H   H18       1.0  0.25048577342892736  0.6394035626887842  0.8847651005793792  1.0000
  H   H19       1.0  0.8606166177544522  0.7504869792241848  0.6347692583739359  1.0000
  H   H20       1.0  0.7495020170529472  0.3606063781800231  0.3847650605569584  1.0000
  H   H21       1.0  0.6393934012553686  0.2504879215311817  0.1152322830157289  1.0000
  H   H22       1.0  0.2495106561388951  0.13940113764886772  0.8652470023166073  1.0000
  H   H23       1.0  0.3606118330626415  0.7495158199034719  0.6152381297988043  1.0000
  H   H24       1.0  0.7504805439738005  0.8606023455265231  0.3652481353006678  1.0000
  H   H25       1.0  0.3215439863536957  0.11722646507544  0.36657700535661064  1.0000
  H   H26       1.0  0.38280686500910827  0.8215523600350708  0.11658421343938839  1.0000
  H   H27       1.0  0.6784557605034109  0.8827763519411465  0.8665880066940801  1.0000
  H   H28       1.0  0.6171924383080165  0.1784493984680822  0.6165893202784147  1.0000
  H   H29       1.0  0.8215674826481629  0.38278765177031454  0.8834057662578161  1.0000
  H   H30       1.0  0.11723362730336356  0.3215523621430166  0.6334166463612334  1.0000
  H   H31       1.0  0.1784479545729027  0.6172065049729268  0.3834221974857924  1.0000
  H   H32       1.0  0.8827833409956866  0.6784519233142134  0.1334230713224045  1.0000
  H   H33       1.0  0.48181222476795676  0.11764685191039348  0.3901323514452102  1.0000
  H   H34       1.0  0.3823915047606262  0.9818156505223428  0.140150610453027  1.0000
  H   H35       1.0  0.5181788231537112  0.8823617391427946  0.8901354887490385  1.0000
  H   H36       1.0  0.6176194997244762  0.0181905665296682  0.6401571508047539  1.0000
  H   H37       1.0  0.9818318860068513  0.3823671751494686  0.8598527444775214  1.0000
  H   H38       1.0  0.1176416600518664  0.4818164892115675  0.6098631291065786  1.0000
  H   H39       1.0  0.0181823793868787  0.617628446010144  0.3598529973636317  1.0000
  H   H40       1.0  0.8823497873410843  0.5181800467498904  0.10987329872806839  1.0000
  H   H41       1.0  0.5251229284257235  0.25561633825659413  0.2191345089915941  1.0000
  H   H42       1.0  0.24437712913853454  0.0251184655291752  0.9691446492338684  1.0000
  H   H43       1.0  0.4748849595064114  0.7443729297210453  0.719149289113119  1.0000
  H   H44       1.0  0.7556061956975668  0.9748758084298642  0.4691389388441536  1.0000
  H   H45       1.0  0.025122231393382304  0.24435615054733262  0.0308564344963997  1.0000
  H   H46       1.0  0.2555924908638191  0.5251212621289697  0.780863662412024  1.0000
  H   H47       1.0  0.97489602251634  0.755636277293398  0.5308628601886483  1.0000
  H   H48       1.0  0.7443952771668945  0.47487419721073815  0.2808743542626075  1.0000
  H   H49       1.0  0.7251445667625447  0.9600409745323759  0.1125611575882246  1.0000
  H   H50       1.0  0.5399633238540318  0.2251291740818644  0.8625659664057962  1.0000
  H   H51       1.0  0.2748659479171494  0.039946990271495494  0.6125653505496658  1.0000
  H   H52       1.0  0.46001802183407386  0.7748809063005312  0.3625654110029046  1.0000
  H   H53       1.0  0.2251282223820681  0.5399681964514186  0.13741147266208736  1.0000
  H   H54       1.0  0.9600437483957832  0.7251489270846535  0.8874296946595095  1.0000
  H   H55       1.0  0.7748545012875707  0.46002619153681235  0.6374295568058699  1.0000
  H   H56       1.0  0.0399578448304041  0.2748491522535729  0.38743883009637864  1.0000
  H   H57       1.0  0.6247909032202299  0.0818537604609659  0.20160638137657827  1.0000
  H   H58       1.0  0.4181073740528801  0.12477357891162912  0.9516178294877591  1.0000
  H   H59       1.0  0.37522038186090606  0.9181191663344778  0.7016010292695753  1.0000
  H   H60       1.0  0.5818747416905694  0.8752142246255447  0.4516207705450981  1.0000
  H   H61       1.0  0.1247653354261118  0.41811287667341895  0.048379205331684695  1.0000
  H   H62       1.0  0.0818359953305148  0.6247905020482919  0.7983740028419035  1.0000
  H   H63       1.0  0.8752284622713659  0.5818735173267698  0.5483910802850076  1.0000
  H   H64       1.0  0.9181503496019727  0.3752127438061522  0.2983923786556559  1.0000
  H   H65       1.0  0.4942428920359418  0.025164779163823404  0.2472512555359074  1.0000
  H   H66       1.0  0.47486234226289536  0.9942051423395739  0.997264198197321  1.0000
  H   H67       1.0  0.5057641656829189  0.9748243118067849  0.7472582882818344  1.0000
  H   H68       1.0  0.5251293650843181  0.0057830322578738  0.49726914691360946  1.0000
  H   H69       1.0  0.9941761041206829  0.47486120092172973  0.002739305301624  1.0000
  H   H70       1.0  0.025158800977209194  0.4942613303450615  0.7527167587319282  1.0000
  H   H71       1.0  0.005796915268646801  0.5251399571567106  0.5027450085965626  1.0000
  H   H72       1.0  0.9748403268421058  0.5057402292081861  0.2527308663352557  1.0000
  H   H73       1.0  0.39693088725328357  0.9015860106503696  0.2770605128662211  1.0000
  H   H74       1.0  0.5984556599045092  0.8969633600674457  0.0270737356427446  1.0000
  H   H75       1.0  0.6030522979767738  0.098420659637469  0.7770682231039316  1.0000
  H   H76       1.0  0.4015507723934206  0.10304422670439811  0.52708799503786  1.0000
  H   H77       1.0  0.8969375827586035  0.5984523560348549  0.9729227628008134  1.0000
  H   H78       1.0  0.9015743171342478  0.39695667457501566  0.7229070212527162  1.0000
  H   H79       1.0  0.10305756477838908  0.40155703012414534  0.4729253155766244  1.0000
  H   H80       1.0  0.09841446441264877  0.6030536271926863  0.22290709722499708  1.0000
  H   H81       1.0  0.431981557392902  0.748434456747063  0.24212977404698677  1.0000
  H   H82       1.0  0.7515789105601415  0.9320561269237405  0.9921388798349752  1.0000
  H   H83       1.0  0.5679972350411545  0.2515671687450904  0.7421320140756008  1.0000
  H   H84       1.0  0.24843388716354292  0.06795116467186087  0.49215271233240543  1.0000
  H   H85       1.0  0.9320549801045742  0.751572779139366  0.0078422801856917  1.0000
  H   H86       1.0  0.7484262281746296  0.43198322661184113  0.7578570448733757  1.0000
  H   H87       1.0  0.0679601249039479  0.24843492902686393  0.5078533106168521  1.0000
  H   H88       1.0  0.2515616812435013  0.5680248809231188  0.2578498798189059  1.0000
  H   H89       1.0  0.5630589550311882  0.7218100695040096  0.1763478434150159  1.0000
  H   H90       1.0  0.7781866729157727  0.06310346780725241  0.926334426673627  1.0000
  H   H91       1.0  0.43692813669169783  0.27818078327275936  0.6763392813366806  1.0000
  H   H92       1.0  0.2218212633984109  0.9369095024564019  0.4263340177122145  1.0000
  H   H93       1.0  0.06311641313014599  0.7781885313953015  0.0736340114121035  1.0000
  H   H94       1.0  0.7218052198748097  0.5630363928465628  0.8236654454026251  1.0000
  H   H95       1.0  0.9369002628083576  0.2218069174247006  0.5736440926400022  1.0000
  H   H96       1.0  0.27818623507190676  0.436973274724572  0.3236650888177053  1.0000
  H   H97       1.0  0.6592060064397813  0.845524655436151  0.1455608400344204  1.0000
  H   H98       1.0  0.6544259379700179  0.1592270458453839  0.8955431558777462  1.0000
  H   H99       1.0  0.3408056215064048  0.15444006930034965  0.6455552490500978  1.0000
  H   H100      1.0  0.3455683670431497  0.8407769048154776  0.3955367061305353  1.0000
  H   H101      1.0  0.15922985033229503  0.6544322994759925  0.10442767354714988  1.0000
  H   H102      1.0  0.845528258042087  0.6591780664586013  0.8544420951810351  1.0000
  H   H103      1.0  0.8407734751548332  0.34555110975671255  0.6044413217347397  1.0000
  H   H104      1.0  0.15446432405675375  0.34081824597726046  0.3544608600023622  1.0000
  C   C1        1.0  0.9827866781145288  0.19894784799107162  0.1902312553669816  1.0000
  C   C2        1.0  0.3010836610393994  0.4827928281176169  0.94023466893335  1.0000
  C   C3        1.0  0.017209542227646996  0.8010606855343171  0.6902346615769089  1.0000
  C   C4        1.0  0.6989393253771823  0.517208867985616  0.4402476611550767  1.0000
  C   C5        1.0  0.4827919376751523  0.30108584933028487  0.0597561049619344  1.0000
  C   C6        1.0  0.1989491460850559  0.9827879953163149  0.8097689505326144  1.0000
  C   C7        1.0  0.5172077137383297  0.6989202153231416  0.5597672181871118  1.0000
  C   C8        1.0  0.8010516065919974  0.017211889034975104  0.3097730945767267  1.0000
  C   C9        1.0  0.07532074457640897  0.1901924507989179  0.2142743318301683  1.0000
  C   C10       1.0  0.30982815898640576  0.575336593812139  0.9642800023917175  1.0000
  C   C11       1.0  0.9246812511602585  0.8098152734996447  0.7142821097948868  1.0000
  C   C12       1.0  0.6901861254437378  0.4246695571034351  0.4642859260463865  1.0000
  C   C13       1.0  0.5753416753924442  0.309826495241559  0.0357155482755402  1.0000
  C   C14       1.0  0.1901912093366746  0.07532110450397059  0.7857253784996701  1.0000
  C   C15       1.0  0.42466536211230727  0.6901816952453927  0.535721405977867  1.0000
  C   C16       1.0  0.8098050840071803  0.9246776149051714  0.2857298359795521  1.0000
  C   C17       1.0  0.09094058866336498  0.1547038608682669  0.2728915478399472  1.0000
  C   C18       1.0  0.34531356700475146  0.5909430053366196  0.0228993763893399  1.0000
  C   C19       1.0  0.9090623646059227  0.8453120493472  0.772899717841419  1.0000
  C   C20       1.0  0.6547014459248145  0.40906724033547454  0.5229031814863703  1.0000
  C   C21       1.0  0.590952206886399  0.34530452804710876  0.9770960216745905  1.0000
  C   C22       1.0  0.15471724683987276  0.0909379286703285  0.7271059130404608  1.0000
  C   C23       1.0  0.40906199886695294  0.6546962776287872  0.4771047648916706  1.0000
  C   C24       1.0  0.8452925666702099  0.9090552376343055  0.2271121685770225  1.0000
  C   C25       1.0  0.1764648201517645  0.151477125458193  0.2956380069083622  1.0000
  C   C26       1.0  0.3485477702891231  0.6764656397918359  0.0456421144292918  1.0000
  C   C27       1.0  0.8235399682463223  0.8485439061783282  0.7956464047319471  1.0000
  C   C28       1.0  0.6514578904058792  0.32354577849430655  0.5456489718650701  1.0000
  C   C29       1.0  0.6764735241594975  0.3485362203550367  0.9543553273082281  1.0000
  C   C30       1.0  0.15147220745463835  0.1764604686809363  0.7043601316931287  1.0000
  C   C31       1.0  0.32354411104949315  0.6514601221410746  0.4543587778777436  1.0000
  C   C32       1.0  0.8485357711411579  0.8235341568604327  0.20437357732302527  1.0000
  C   C33       1.0  0.24494982934329806  0.1860237422946085  0.2596398035834468  1.0000
  C   C34       1.0  0.31398184386168276  0.7449602074045388  0.009652773794066098  1.0000
  C   C35       1.0  0.7550538628560872  0.8139850125960494  0.7596545051324242  1.0000
  C   C36       1.0  0.686015482129683  0.2550481467833166  0.50966298577017  1.0000
  C   C37       1.0  0.744964333134959  0.3139762011775248  0.9903459518643345  1.0000
  C   C38       1.0  0.1860076222748432  0.24494681488833692  0.7403566420112639  1.0000
  C   C39       1.0  0.25504913328928314  0.6860205726696196  0.4903480976355397  1.0000
  C   C40       1.0  0.8139876323864353  0.7550436351712834  0.24036947875589476  1.0000
  C   C41       1.0  0.14733355726436054  0.22158901501455122  0.1807866971672993  1.0000
  C   C42       1.0  0.27843755355609556  0.647342723729544  0.9307933704295408  1.0000
  C   C43       1.0  0.8526686436507515  0.778422868496257  0.6808003168481419  1.0000
  C   C44       1.0  0.7215650902475018  0.35265376653175906  0.4308008216563977  1.0000
  C   C45       1.0  0.6473513219162754  0.27843389687599546  0.0692034441876004  1.0000
  C   C46       1.0  0.2215910457938932  0.1473365652103524  0.8192067014430223  1.0000
  C   C47       1.0  0.35265419416997185  0.7215681601215637  0.5692103257798635  1.0000
  C   C48       1.0  0.7784030685102862  0.8526672078926012  0.3192119378030611  1.0000
  C   C49       1.0  0.3382401147159513  0.18637521955935202  0.2794614822579717  1.0000
  C   C50       1.0  0.31364169095675715  0.8382466125685184  0.0294836697265453  1.0000
  C   C51       1.0  0.6617608238275423  0.8136334104550258  0.7794741358989085  1.0000
  C   C52       1.0  0.6863640683147807  0.1617543783674265  0.5294835579114405  1.0000
  C   C53       1.0  0.8382514242830509  0.3136394634281672  0.9705198576168712  1.0000
  C   C54       1.0  0.1863592251641464  0.3382386347735178  0.7205374541669798  1.0000
  C   C55       1.0  0.161755583302849  0.6863705963674248  0.4705204150159759  1.0000
  C   C56       1.0  0.8136335186850373  0.6617545722594543  0.2205422778439114  1.0000
  C   C57       1.0  0.36741485160507636  0.14829434732899216  0.3347032455883506  1.0000
  C   C58       1.0  0.3517259061478554  0.8674213299376916  0.0847206958313009  1.0000
  C   C59       1.0  0.6325804845889278  0.8517264380525803  0.8347066238607254  1.0000
  C   C60       1.0  0.6482828055677671  0.13258786826359176  0.5847221683619139  1.0000
  C   C61       1.0  0.8674260026372591  0.35172181752528087  0.9152817071029347  1.0000
  C   C62       1.0  0.14828307266866858  0.3674089325066419  0.6652994114891442  1.0000
  C   C63       1.0  0.1325806848926661  0.6482833254209552  0.415290317065228  1.0000
  C   C64       1.0  0.8517034287742148  0.6325865962514996  0.16530006639214176  1.0000
  C   C65       1.0  0.4569232003935397  0.1482817940178691  0.3481619294440179  1.0000
  C   C66       1.0  0.3517324382109237  0.956924531850099  0.0981756674761414  1.0000
  C   C67       1.0  0.5430720531253853  0.8517316678820847  0.8481650951498169  1.0000
  C   C68       1.0  0.6482722425478613  0.043081291144723415  0.598181581323729  1.0000
  C   C69       1.0  0.9569350921946266  0.3517172457855438  0.9018241593243131  1.0000
  C   C70       1.0  0.14827981616857497  0.45691485107775526  0.6518312251794924  1.0000
  C   C71       1.0  0.04307299360731069  0.6482800851214066  0.40182840094031747  1.0000
  C   C72       1.0  0.8517120322027549  0.5430781303633055  0.15183955366003227  1.0000
  C   C73       1.0  0.5158656499269937  0.1864415329973995  0.3065206109187102  1.0000
  C   C74       1.0  0.3135778825462836  0.0158720904106175  0.0565272724171209  1.0000
  C   C75       1.0  0.48413314834409243  0.8135570555628888  0.8065346828649423  1.0000
  C   C76       1.0  0.6864158658957891  0.9841307040417745  0.5565282314197546  1.0000
  C   C77       1.0  0.0158721083460165  0.3135541102384707  0.9434754792662189  1.0000
  C   C78       1.0  0.18643623701205309  0.5158665572512007  0.6934704066292027  1.0000
  C   C79       1.0  0.9841363804519856  0.6864416423536924  0.4434760554461263  1.0000
  C   C80       1.0  0.8135652276229661  0.4841301108223278  0.1934799528757054  1.0000
  C   C81       1.0  0.48185342732943326  0.22480716621156202  0.252956414203517  1.0000
  C   C82       1.0  0.2752175791522475  0.9818522939592854  0.0029565230643768996  1.0000
  C   C83       1.0  0.5181463567272431  0.7751845208231884  0.7529723608561695  1.0000
  C   C84       1.0  0.7247574128486887  0.018140307972053904  0.5029498360266587  1.0000
  C   C85       1.0  0.9818542872371339  0.27519816550849907  0.9970434161930511  1.0000
  C   C86       1.0  0.22479387212387536  0.4818561809870374  0.7470387461550558  1.0000
  C   C87       1.0  0.018156934894761896  0.724793816866061  0.49704983355982785  1.0000
  C   C88       1.0  0.7751954193027045  0.5181427817001492  0.2470450584399799  1.0000
  C   C89       1.0  0.6136827520939362  0.1842563519219311  0.3168555058671458  1.0000
  C   C90       1.0  0.31576492281455154  0.11367560058655361  0.0668681438643262  1.0000
  C   C91       1.0  0.3863113762980603  0.8157395391404236  0.8168670726688916  1.0000
  C   C92       1.0  0.6842471882139874  0.886323181050841  0.5668624945506551  1.0000
  C   C93       1.0  0.11368285366546618  0.3157471239948394  0.9331375414249122  1.0000
  C   C94       1.0  0.1842478170185515  0.6136851076176343  0.6831343025215801  1.0000
  C   C95       1.0  0.8863243827253271  0.6842611969105121  0.43314532325889127  1.0000
  C   C96       1.0  0.8157444979443579  0.3863129413302673  0.1831423076652499  1.0000
  C   C97       1.0  0.7633395996336461  0.0957568303358869  0.1256297219601095  1.0000
  C   C98       1.0  0.404226042439454  0.26332305933980393  0.8756356424141813  1.0000
  C   C99       1.0  0.23666359626924557  0.904232368061031  0.6256358820940306  1.0000
  C   C100      1.0  0.5957585126567224  0.7366625903138272  0.3756459130862453  1.0000
  C   C101      1.0  0.26332373474361503  0.4042304987477934  0.124349937866242  1.0000
  C   C102      1.0  0.09577487184815678  0.7633392082983476  0.8743612889900092  1.0000
  C   C103      1.0  0.7366702564716759  0.5957725267912366  0.6243612307885513  1.0000
  C   C104      1.0  0.9042261436878646  0.23666816627130774  0.37436259876923117  1.0000
  C   C105      1.0  0.7080527164069607  0.018627153759773307  0.1389345038033909  1.0000
  C   C106      1.0  0.4813500720411952  0.20803755957138043  0.8889272759103121  1.0000
  C   C107      1.0  0.2919576362944836  0.9813474836350834  0.6389407257567327  1.0000
  C   C108      1.0  0.5186422989337416  0.7919585358018894  0.3889343526574364  1.0000
  C   C109      1.0  0.20803008715867574  0.4813469068038145  0.11106008618760649  1.0000
  C   C110      1.0  0.0186540254350902  0.7080540579462423  0.8610638289982121  1.0000
  C   C111      1.0  0.7919449010914121  0.5186496210179853  0.6110705476529289  1.0000
  C   C112      1.0  0.9813483878618567  0.29195866493314077  0.3610652094567612  1.0000
  C   C113      1.0  0.6394637112759654  0.019689927181843807  0.1783482612167759  1.0000
  C   C114      1.0  0.4802734611115226  0.13944427986206884  0.928338741643735  1.0000
  C   C115      1.0  0.360549690308261  0.980280513799002  0.6783533720777726  1.0000
  C   C116      1.0  0.5197226173808289  0.860562096661191  0.4283391319976744  1.0000
  C   C117      1.0  0.13942479309939418  0.48027186302833513  0.0716566784254411  1.0000
  C   C118      1.0  0.01970520448793419  0.6394670270089194  0.8216475027588359  1.0000
  C   C119      1.0  0.8605484620639173  0.519720964372212  0.5716669454525274  1.0000
  C   C120      1.0  0.9802961339221808  0.3605433116918206  0.32164866738241926  1.0000
  C   C121      1.0  0.5830310360755746  0.9450348355925514  0.1934472158213154  1.0000
  C   C122      1.0  0.5549467819985522  0.08303667766695362  0.9434372324166276  1.0000
  C   C123      1.0  0.4169770089018597  0.054946697323217095  0.6934468094401538  1.0000
  C   C124      1.0  0.4450445973902219  0.916965655224395  0.443437650777085  1.0000
  C   C125      1.0  0.08302615783689049  0.5549481181388175  0.0565479744396029  1.0000
  C   C126      1.0  0.9450439430658403  0.5830314916259737  0.8065524173462747  1.0000
  C   C127      1.0  0.9169577191391337  0.4450487531689973  0.5565601696291509  1.0000
  C   C128      1.0  0.054965384400169584  0.4169723617060015  0.3065545931105689  1.0000
  C   C129      1.0  0.5085474876956225  0.9587599536885848  0.23095067577871478  1.0000
  C   C130      1.0  0.5412323367508947  0.008563098068044898  0.9809416719473135  1.0000
  C   C131      1.0  0.49145769538933587  0.0412220011134607  0.7309454882323436  1.0000
  C   C132      1.0  0.4587496000644364  0.9914416306447792  0.48094458512633753  1.0000
  C   C133      1.0  0.008541174967007199  0.5412458335661654  0.0190571892499989  1.0000
  C   C134      1.0  0.9587581898124427  0.5085611283145326  0.7690343626671989  1.0000
  C   C135      1.0  0.9914356930525938  0.45875851226351483  0.5190654392941026  1.0000
  C   C136      1.0  0.04124347076025  0.4914495416108764  0.2690349538144901  1.0000
  C   C137      1.0  0.4537807439051633  0.8890559310915552  0.24759117196391137  1.0000
  C   C138      1.0  0.6109384088742402  0.9537981428840538  0.9975771439156561  1.0000
  C   C139      1.0  0.546220389183631  0.11093513175991632  0.7475879183729645  1.0000
  C   C140      1.0  0.38905922055461417  0.04622688179215121  0.49758418958280254  1.0000
  C   C141      1.0  0.9537662313705579  0.6109436874406668  0.0024219180111871  1.0000
  C   C142      1.0  0.8890531913995829  0.4537842893839894  0.7523900824830179  1.0000
  C   C143      1.0  0.0462232420820001  0.38906537007960657  0.5024219399790937  1.0000
  C   C144      1.0  0.11094067420907548  0.5462264850243983  0.2523939988935737  1.0000
  C   C145      1.0  0.4727821512118168  0.8037256013420803  0.22762032523011297  1.0000
  C   C146      1.0  0.6962628742382292  0.9727971414602196  0.9776083472455425  1.0000
  C   C147      1.0  0.5272151555449937  0.19626098059621466  0.7276214699474366  1.0000
  C   C148      1.0  0.30374803837336367  0.027213531893473003  0.47761846162281063  1.0000
  C   C149      1.0  0.9727875950622432  0.6962583019333837  0.0223770121253324  1.0000
  C   C150      1.0  0.8037248551822528  0.4727841423209043  0.7723703624628585  1.0000
  C   C151      1.0  0.0272129433633594  0.30374865616734326  0.522376435651708  1.0000
  C   C152      1.0  0.19626559787312195  0.5272311126450617  0.2723796429685734  1.0000
  C   C153      1.0  0.5467260323283725  0.7887317060054996  0.19053106337374  1.0000
  C   C154      1.0  0.7112771657551773  0.04676310157767459  0.9405367818347371  1.0000
  C   C155      1.0  0.45326426305053497  0.21126366405251676  0.6905319043874271  1.0000
  C   C156      1.0  0.28873331515199396  0.9532306953506264  0.44054721663389534  1.0000
  C   C157      1.0  0.04677932630580269  0.7112716193809092  0.0594397547781611  1.0000
  C   C158      1.0  0.7887306392971423  0.5467253729209675  0.8094636040484601  1.0000
  C   C159      1.0  0.9532315139519411  0.28872523472759337  0.5594468065473278  1.0000
  C   C160      1.0  0.2112668252654117  0.4532850423205305  0.3094703081114361  1.0000
  C   C161      1.0  0.6008399702739452  0.8584547900730469  0.17343804697470228  1.0000
  C   C162      1.0  0.6415511558408227  0.10087357421636511  0.9234448862509765  1.0000
  C   C163      1.0  0.3991589847204295  0.14154134595960952  0.6734438785972401  1.0000
  C   C164      1.0  0.3584403453494502  0.899112432809517  0.42344929671244097  1.0000
  C   C165      1.0  0.10088804516847458  0.6415571108487016  0.076527541183097  1.0000
  C   C166      1.0  0.8584540378582941  0.6008342715370251  0.8265594828520761  1.0000
  C   C167      1.0  0.8991174256816378  0.3584350289844167  0.5765432946268517  1.0000
  C   C168      1.0  0.14154595396386327  0.3991668232040411  0.3265697859378278  1.0000
  N   N1        1.0  0.22918056129759626  0.22057917807935468  0.2033978632479716  1.0000
  N   N2        1.0  0.27944865321096296  0.7291827254983545  0.9534109815027989  1.0000
  N   N3        1.0  0.7708175527815725  0.7794338790801448  0.7034103223293968  1.0000
  N   N4        1.0  0.7205492458434504  0.27082086094477376  0.4534233141414106  1.0000
  N   N5        1.0  0.7291880091767026  0.2794392078002089  0.046583738630197005  1.0000
  N   N6        1.0  0.22057213018760535  0.2291753187637084  0.796592523393265  1.0000
  N   N7        1.0  0.2708169869778558  0.7205531205439186  0.5465913130591744  1.0000
  N   N8        1.0  0.7794227801456016  0.7708154353259785  0.2966081766078759  1.0000
  N   N9        1.0  0.3958795723295268  0.22449081323857462  0.24001904872037017  1.0000
  N   N10       1.0  0.2755496529001816  0.8958732025881347  0.9900233715029926  1.0000
  N   N11       1.0  0.6041176590875705  0.7755128003776195  0.7400356784841335  1.0000
  N   N12       1.0  0.7244328860085073  0.1041202818517277  0.49001313719277556  1.0000
  N   N13       1.0  0.8958777447776355  0.2755371672670178  0.0099782504833215  1.0000
  N   N14       1.0  0.2244794107440171  0.3958821062589664  0.7599851427496488  1.0000
  N   N15       1.0  0.10413208234955108  0.7244639465934809  0.5099830442658302  1.0000
  N   N16       1.0  0.7755183562574145  0.6041134849230403  0.259982868315447  1.0000
  O   O1        1.0  0.9243661336322544  0.1981111441960408  0.23163655621576848  1.0000
  O   O2        1.0  0.3018816074892356  0.42436808596208664  0.9816385939147239  1.0000
  O   O3        1.0  0.07563114969019578  0.8019069997474872  0.7316379500550596  1.0000
  O   O4        1.0  0.69814836425774  0.5756346658970983  0.4816486314563093  1.0000
  O   O5        1.0  0.4243697323428464  0.3018807580377186  0.018351428598514  1.0000
  O   O6        1.0  0.19815481068875573  0.9243660876931514  0.7683624413575457  1.0000
  O   O7        1.0  0.5756453069404515  0.6980893740622279  0.5183623817302347  1.0000
  O   O8        1.0  0.8018685699648032  0.07563340007714457  0.2683682438398876  1.0000
  O   O9        1.0  0.9721685105059378  0.2074768674797625  0.1322305199387444  1.0000
  O   O10       1.0  0.2925666748824227  0.47217871085371144  0.882231190572398  1.0000
  O   O11       1.0  0.027820167514249795  0.7925155791841051  0.6322334620688679  1.0000
  O   O12       1.0  0.7074441630452454  0.5278154531376914  0.38224043120440854  1.0000
  O   O13       1.0  0.4721714737962158  0.29257579296452724  0.1177605639769936  1.0000
  O   O14       1.0  0.2074673279893275  0.9721780860869914  0.8677701539591923  1.0000
  O   O15       1.0  0.5278212423951274  0.7074476741594539  0.6177637706139549  1.0000
  O   O16       1.0  0.792511353313685  0.027826038807496897  0.3677733643903309  1.0000
  O   O17       1.0  0.6392079210773146  0.1485141383498529  0.3667233517000028  1.0000
  O   O18       1.0  0.3515194443348192  0.13921244653615625  0.11673310719042719  1.0000
  O   O19       1.0  0.360776689621744  0.8514992063071247  0.866727949209249  1.0000
  O   O20       1.0  0.6485167100045998  0.8607853639886971  0.6167322564112467  1.0000
  O   O21       1.0  0.13923135109121887  0.35151424303938233  0.8832825536242553  1.0000
  O   O22       1.0  0.1485089885111961  0.6392262261612346  0.6332697194700145  1.0000
  O   O23       1.0  0.8607840874085112  0.6484930758929791  0.38328544134842696  1.0000
  O   O24       1.0  0.851484948350695  0.36078332393274337  0.1332735507462459  1.0000
  O   O25       1.0  0.6602657605075847  0.2173952356535196  0.2742860825600246  1.0000
  O   O26       1.0  0.28259332614219085  0.16024866079992958  0.024314971630055  1.0000
  O   O27       1.0  0.3397371827860525  0.7825818397259569  0.7742983465373711  1.0000
  O   O28       1.0  0.7174091741002824  0.839743149618066  0.5243075315071195  1.0000
  O   O29       1.0  0.16025461409994082  0.2825695403458539  0.975693905934385  1.0000
  O   O30       1.0  0.21739453315890953  0.6602616482396185  0.7257048729704678  1.0000
  O   O31       1.0  0.8397497294904708  0.7174398287121874  0.47569432351677676  1.0000
  O   O32       1.0  0.7825883078799049  0.33972889364138587  0.2257048073795218  1.0000
  O   O33       1.0  0.7551695518991721  0.16805052471283236  0.1572820831730297  1.0000
  O   O34       1.0  0.3319363800527809  0.2551352520142345  0.9072859124630597  1.0000
  O   O35       1.0  0.2448314760526812  0.8319404485598341  0.6572856806119346  1.0000
  O   O36       1.0  0.6680394260506474  0.7448436173798639  0.40729872630343067  1.0000
  O   O37       1.0  0.2551373904851175  0.33194344324501657  0.09270175521921689  1.0000
  O   O38       1.0  0.16805932709524998  0.7551516378909964  0.8427105833078414  1.0000
  O   O39       1.0  0.7448758787000926  0.6680624144892207  0.5927187975790034  1.0000
  O   O40       1.0  0.8319405653107949  0.24483421963182653  0.34270929773177977  1.0000
  O   O41       1.0  0.8174292193921531  0.09225342319959401  0.0810715626154916  1.0000
  O   O42       1.0  0.4077225286223154  0.3174349876794055  0.8310876202537755  1.0000
  O   O43       1.0  0.18256701072314735  0.9077413199711447  0.5810847885205561  1.0000
  O   O44       1.0  0.5922616415194426  0.682560155362836  0.3310966879747284  1.0000
  O   O45       1.0  0.3174350552044771  0.4077365580279207  0.1688959409131883  1.0000
  O   O46       1.0  0.09226195442872862  0.8174367796800014  0.9189128326490348  1.0000
  O   O47       1.0  0.6825619535136125  0.5922635549218854  0.6689069339247666  1.0000
  O   O48       1.0  0.9077302335734599  0.18257623671051698  0.4189175374951475  1.0000
