data_image0
_chemical_formula_structural       Mn12H96C84S12N12O36
_chemical_formula_sum              "Mn12 H96 C84 S12 N12 O36"
_cell_length_a       15.409848979253624
_cell_length_b       16.405157949089787
_cell_length_c       16.405145322545472
_cell_angle_alpha    110.66807857102323
_cell_angle_beta     108.24541515269631
_cell_angle_gamma    108.24531754397873

_space_group_name_H-M_alt    "P 1"
_space_group_IT_number       1

loop_
  _space_group_symop_operation_xyz
  'x, y, z'

loop_
  _atom_site_type_symbol
  _atom_site_label
  _atom_site_symmetry_multiplicity
  _atom_site_fract_x
  _atom_site_fract_y
  _atom_site_fract_z
  _atom_site_occupancy
  Mn  Mn1       1.0  0.250000795985251  0.34235316053445075  0.6576474901442069  1.0000
  Mn  Mn2       1.0  0.9076319478415866  0.31525572775799277  0.6575816814421599  1.0000
  Mn  Mn3       1.0  0.5923702595664722  0.34241864755141893  0.6847452778064635  1.0000
  Mn  Mn4       1.0  0.7500006739122113  0.6576497213044374  0.3423543316873107  1.0000
  Mn  Mn5       1.0  0.09236809768908213  0.6847456718610018  0.34241919673580395  1.0000
  Mn  Mn6       1.0  0.4076296721382775  0.6575797875588661  0.3152539142084193  1.0000
  Mn  Mn7       1.0  0.34330311177964756  0.1866665426265257  0.5932788498241948  1.0000
  Mn  Mn8       1.0  0.1566969138927305  0.40671968009378645  0.8133326982674731  1.0000
  Mn  Mn9       1.0  0.7500000915916304  0.4066421071578644  0.5933568481646816  1.0000
  Mn  Mn10      1.0  0.6566941446260159  0.8133333748057081  0.4067200705763766  1.0000
  Mn  Mn11      1.0  0.8433015880539898  0.593277272799277  0.18666737719750864  1.0000
  Mn  Mn12      1.0  0.24999853316640483  0.5933578102394532  0.4066418682906343  1.0000
  H   H1        1.0  0.5992416936957312  0.409335260884653  0.9745596662380507  1.0000
  H   H2        1.0  0.22050424118287987  0.14988322180332148  0.713701776108806  1.0000
  H   H3        1.0  0.21772176182348346  0.9173612244861927  0.5975326263210404  1.0000
  H   H4        1.0  0.09912960366393253  0.8541957172561182  0.594714938311881  1.0000
  H   H5        1.0  0.21971256301091555  0.8983232367116327  0.6991220659592653  1.0000
  H   H6        1.0  0.1289233835860912  0.09047982211962585  0.7740602308413926  1.0000
  H   H7        1.0  0.15494873837890571  0.0050613239318266995  0.8083341330483762  1.0000
  H   H8        1.0  0.04030170393474465  0.9609493260061441  0.6971468928804541  1.0000
  H   H9        1.0  0.18985750126948625  0.5650388892947901  0.590537198632198  1.0000
  H   H10       1.0  0.07050247219920175  0.5638520191584673  0.850053189338098  1.0000
  H   H11       1.0  0.3002089218879291  0.6801272755074591  0.08247681184878528  1.0000
  H   H12       1.0  0.24484703366661612  0.7404898780532247  0.14570350980326197  1.0000
  H   H13       1.0  0.32130130345346686  0.8007830358040591  0.10157857697335242  1.0000
  H   H14       1.0  0.03834164690501034  0.6836531809301503  0.9095059353053401  1.0000
  H   H15       1.0  0.14981103459152922  0.8033143768894886  0.9949227702393271  1.0000
  H   H16       1.0  0.07927838456009077  0.7362405899445716  0.03905046199026411  1.0000
  H   H17       1.0  0.6248065685073102  0.0254113892921453  0.4349136914347511  1.0000
  H   H18       1.0  0.5067074641017939  0.2862963809571751  0.43606337586888333  1.0000
  H   H19       1.0  0.6204873172414551  0.4025013621182367  0.31995861293181344  1.0000
  H   H20       1.0  0.5047958522221733  0.40539534337463573  0.2595438004387418  1.0000
  H   H21       1.0  0.5209703158377293  0.3009811290464909  0.1992275478936135  1.0000
  H   H22       1.0  0.35493170490570247  0.2258833565622353  0.3161191446072138  1.0000
  H   H23       1.0  0.34686381933344984  0.19169519180895375  0.19650539613679993  1.0000
  H   H24       1.0  0.3433479887766424  0.3028629883843906  0.2635717007453309  1.0000
  H   H25       1.0  0.8751943883435374  0.5650865585974215  0.9745887928763323  1.0000
  H   H26       1.0  0.9932948370643047  0.5639366841620159  0.7137014917529924  1.0000
  H   H27       1.0  0.8795133043685085  0.6800421833272664  0.5975002730081727  1.0000
  H   H28       1.0  0.9952037664224845  0.7404574325994416  0.5946055282563733  1.0000
  H   H29       1.0  0.9790283400175209  0.8007731508388501  0.699019927446919  1.0000
  H   H30       1.0  0.14507092714575986  0.6838852297159548  0.7741202847132982  1.0000
  H   H31       1.0  0.1531345816762766  0.8034963511165002  0.8083064643567963  1.0000
  H   H32       1.0  0.15665298540333333  0.7364329796051832  0.6971403092073486  1.0000
  H   H33       1.0  0.9007592461406732  0.025441679104766  0.5906651032813175  1.0000
  H   H34       1.0  0.27949490153378787  0.2862997404758545  0.8501170687735922  1.0000
  H   H35       1.0  0.2822781416314372  0.40246734655228533  0.08264029589602732  1.0000
  H   H36       1.0  0.4008691069239064  0.4052844228070073  0.14580358406266924  1.0000
  H   H37       1.0  0.28028725454041137  0.30087813819501  0.10167702943510185  1.0000
  H   H38       1.0  0.3710752438588543  0.22594009728339867  0.9095195019615474  1.0000
  H   H39       1.0  0.3450503196491468  0.19166521844171308  0.9949367922063034  1.0000
  H   H40       1.0  0.4596965879268425  0.30285232142433927  0.039049024026816384  1.0000
  H   H41       1.0  0.3101420915096967  0.40946114888683377  0.434960050951112  1.0000
  H   H42       1.0  0.429494859937286  0.14994573201418854  0.4361468671649646  1.0000
  H   H43       1.0  0.1997908825409667  0.9175228586162588  0.3198719961955801  1.0000
  H   H44       1.0  0.25515302441811366  0.8542972852341392  0.2595102081361772  1.0000
  H   H45       1.0  0.17869896295535168  0.8984214095396864  0.19921696240627523  1.0000
  H   H46       1.0  0.46165793910909503  0.09049374231573638  0.3163466580011374  1.0000
  H   H47       1.0  0.35018855151238887  0.0050777685320753  0.19668485829512153  1.0000
  H   H48       1.0  0.42072069817323404  0.9609494741903716  0.2637590439707508  1.0000
  H   H49       1.0  0.40075903151842596  0.5906661387191149  0.025442632553655576  1.0000
  H   H50       1.0  0.7794929574112786  0.8501152133750053  0.28629660572750726  1.0000
  H   H51       1.0  0.782277173870547  0.08263795177656157  0.402466531159007  1.0000
  H   H52       1.0  0.9008675371187279  0.14580123566829428  0.4052829049601669  1.0000
  H   H53       1.0  0.7802874247082485  0.10167668065345478  0.30087827365443326  1.0000
  H   H54       1.0  0.871076235385587  0.9095193541261182  0.22593912918330247  1.0000
  H   H55       1.0  0.8450505118452724  0.9949371111945735  0.1916642473873152  1.0000
  H   H56       1.0  0.9596972299622024  0.0390498502575056  0.3028528736341514  1.0000
  H   H57       1.0  0.8101410620828914  0.4349595458504112  0.40946219732794725  1.0000
  H   H58       1.0  0.9294968340393979  0.43614789822274247  0.14994633869640953  1.0000
  H   H59       1.0  0.6997906970837418  0.31987190073828486  0.91752254817591  1.0000
  H   H60       1.0  0.7551529540525477  0.25951003931186273  0.854296829810437  1.0000
  H   H61       1.0  0.6786986860627806  0.1992168815601403  0.8984211536057954  1.0000
  H   H62       1.0  0.9616576593335893  0.31634673645105243  0.0904935927291675  1.0000
  H   H63       1.0  0.8501889531276349  0.19668554047559889  0.00507756937437874  1.0000
  H   H64       1.0  0.9207209198814326  0.2637593274375191  0.960949675078794  1.0000
  H   H65       1.0  0.37519201101878247  0.974587045845034  0.5650802232144442  1.0000
  H   H66       1.0  0.49329651125441404  0.7137005717962666  0.5639358838150555  1.0000
  H   H67       1.0  0.37951304461644497  0.5974992963635231  0.6800408791672367  1.0000
  H   H68       1.0  0.49520345042226666  0.5946045740083503  0.7404569456648671  1.0000
  H   H69       1.0  0.47903072750073505  0.6990195294191464  0.800772755784635  1.0000
  H   H70       1.0  0.64507137928031  0.7741173018568331  0.6838848118777178  1.0000
  H   H71       1.0  0.6531368480692024  0.8083047255409072  0.8034963640906411  1.0000
  H   H72       1.0  0.6566537902597318  0.6971391523208154  0.736431171145476  1.0000
  H   H73       1.0  0.1248049757065601  0.4349148410376884  0.02541127372244022  1.0000
  H   H74       1.0  0.0067024157471920155  0.4360632332719945  0.28629864671668054  1.0000
  H   H75       1.0  0.12048568733993645  0.31995847519028314  0.4025000320706907  1.0000
  H   H76       1.0  0.004797275118903568  0.2595432258670839  0.40539538445641904  1.0000
  H   H77       1.0  0.020969966616199487  0.19922750769660516  0.3009807841218546  1.0000
  H   H78       1.0  0.8549273758938013  0.31611542882128413  0.22588164492456983  1.0000
  H   H79       1.0  0.8468626675410674  0.1965035663192936  0.19169489218197094  1.0000
  H   H80       1.0  0.8433450084973089  0.26356842006573084  0.3028605703712374  1.0000
  H   H81       1.0  0.09924006189501011  0.9745582382755488  0.40933381571863947  1.0000
  H   H82       1.0  0.7205057152456931  0.7136986946165321  0.14988171675138762  1.0000
  H   H83       1.0  0.7177225311624583  0.5975325707949039  0.9173596372277687  1.0000
  H   H84       1.0  0.5991319364145654  0.5947162356586304  0.8541967196155795  1.0000
  H   H85       1.0  0.7197127349758361  0.6991217791691894  0.8983227011440461  1.0000
  H   H86       1.0  0.6289257994796174  0.7740605611822388  0.09048080171670136  1.0000
  H   H87       1.0  0.6549499826001793  0.8083339577870206  0.005062770363032545  1.0000
  H   H88       1.0  0.5403044554116221  0.6971483370412983  0.9609512796514322  1.0000
  H   H89       1.0  0.6898585216756173  0.5905372862073361  0.5650399526429694  1.0000
  H   H90       1.0  0.5705045023157354  0.8500556676218167  0.5638538084683588  1.0000
  H   H91       1.0  0.8002104681393335  0.08247705871659151  0.6801299665765086  1.0000
  H   H92       1.0  0.7448473320485506  0.14570337325028496  0.7404911110665253  1.0000
  H   H93       1.0  0.8213024437393699  0.1015799900479593  0.8007861479646223  1.0000
  H   H94       1.0  0.5383427318877168  0.9095061750323409  0.6836538841572093  1.0000
  H   H95       1.0  0.6498111216766206  0.9949228899693594  0.8033162583629405  1.0000
  H   H96       1.0  0.5792792895459371  0.03905044317471609  0.736241295642948  1.0000
  C   C1        1.0  0.48036935675565223  0.4401475740703731  0.9037692336648321  1.0000
  C   C2        1.0  0.46646555054194033  0.3751264658361961  0.8046224929322888  1.0000
  C   C3        1.0  0.5548128178593501  0.44855018831259486  0.9860869080810132  1.0000
  C   C4        1.0  0.4239952824347171  0.49292543539616657  0.9166137754339373  1.0000
  C   C5        1.0  0.2282346130716419  0.0833556842384127  0.6785385992650818  1.0000
  C   C6        1.0  0.17944617635341598  0.9141872668484793  0.6431004642346208  1.0000
  C   C7        1.0  0.12292577701541062  0.016466514156633097  0.7455309105355354  1.0000
  C   C8        1.0  0.04017041202005341  0.4635222739393896  0.55975186782522  1.0000
  C   C9        1.0  0.09128157387340968  0.4293195275817754  0.6247095485692711  1.0000
  C   C10       1.0  0.10623615926097323  0.5374435931878734  0.5513766444959529  1.0000
  C   C11       1.0  0.9310244201333618  0.4236633244343651  0.5070221722851044  1.0000
  C   C12       1.0  0.14479512887203333  0.5952280796756071  0.9165505165627933  1.0000
  C   C13       1.0  0.26512451931578357  0.7288913803451395  0.08568049946296702  1.0000
  C   C14       1.0  0.1063538390103319  0.7290952660387974  0.9835095935332205  1.0000
  C   C15       1.0  0.5766632519346829  0.09622672190349847  0.5364137104607777  1.0000
  C   C16       1.0  0.6619364085525916  0.19540745634810716  0.5705856139732147  1.0000
  C   C17       1.0  0.5688043333915899  0.013880162625724798  0.46254889774954216  1.0000
  C   C18       1.0  0.507354622556015  0.08339517043576448  0.5762448442398805  1.0000
  C   C19       1.0  0.5497304803410118  0.3214861970450329  0.4047850092323984  1.0000
  C   C20       1.0  0.5366640008116832  0.35695150742358084  0.2711140187869034  1.0000
  C   C21       1.0  0.37760161156438704  0.2544805995052783  0.2707228912000375  1.0000
  C   C22       1.0  0.9233365269603907  0.46358266886958427  0.9037738490865478  1.0000
  C   C23       1.0  0.8380648810427759  0.4294150142218953  0.8045932262567774  1.0000
  C   C24       1.0  0.9311954657735485  0.5374500023417994  0.9861199752784062  1.0000
  C   C25       1.0  0.9926460541228153  0.42375200999806123  0.9166051599848258  1.0000
  C   C26       1.0  0.9502724723948432  0.5952184844244355  0.6785168951625877  1.0000
  C   C27       1.0  0.963334719106193  0.7288856032706832  0.6430494161488269  1.0000
  C   C28       1.0  0.12239976968542275  0.7292805526801375  0.7455220069033076  1.0000
  C   C29       1.0  0.0196344340060151  0.09623269709953769  0.5598544047655665  1.0000
  C   C30       1.0  0.033537181017933904  0.1953789650767845  0.6248751664443546  1.0000
  C   C31       1.0  0.9451873761020975  0.0139137473857289  0.5514481195263414  1.0000
  C   C32       1.0  0.07600343152096659  0.08338301440608827  0.5070728539670029  1.0000
  C   C33       1.0  0.27176540487679557  0.3214635548347288  0.9166452085760923  1.0000
  C   C34       1.0  0.3205526570249618  0.35689891080956215  0.08581243651892116  1.0000
  C   C35       1.0  0.3770720711486319  0.2544682618743436  0.9835318188383511  1.0000
  C   C36       1.0  0.45983029009264703  0.44024837736623823  0.5364781833421048  1.0000
  C   C37       1.0  0.4087211849286659  0.37529213259307426  0.5706821706929331  1.0000
  C   C38       1.0  0.3937639413055649  0.448623944016191  0.46255640153892585  1.0000
  C   C39       1.0  0.5689751226217368  0.49297762025340564  0.5763379819316085  1.0000
  C   C40       1.0  0.35520355128767994  0.08344992027568308  0.4047710419376997  1.0000
  C   C41       1.0  0.23487522041518363  0.9143194920496995  0.2711074186119616  1.0000
  C   C42       1.0  0.3936451222578157  0.0164901325134039  0.27090359645568907  1.0000
  C   C43       1.0  0.5196334796970986  0.5598553077344943  0.09623299325597379  1.0000
  C   C44       1.0  0.5335365430245889  0.624874933732663  0.1953796019141549  1.0000
  C   C45       1.0  0.44518779352888777  0.5514482467824635  0.013913704547619003  1.0000
  C   C46       1.0  0.5760037164620472  0.5070752231178233  0.08338409350672289  1.0000
  C   C47       1.0  0.7717639502807359  0.9166427509067816  0.3214607966950707  1.0000
  C   C48       1.0  0.8205530738707694  0.08581116827792101  0.35689791620107053  1.0000
  C   C49       1.0  0.8770734714116912  0.9835319209706626  0.25446807893470685  1.0000
  C   C50       1.0  0.9598306277242513  0.5364783845280314  0.4402496539221302  1.0000
  C   C51       1.0  0.9087197786039667  0.5706803897501799  0.37529180516827404  1.0000
  C   C52       1.0  0.8937634615077814  0.46255558305698224  0.4486221064941986  1.0000
  C   C53       1.0  0.0689752006353928  0.5763358518104907  0.49297657870504  1.0000
  C   C54       1.0  0.8552044865054854  0.4047710965719205  0.08345006153100339  1.0000
  C   C55       1.0  0.7348747273142424  0.27110705478305164  0.914319099041819  1.0000
  C   C56       1.0  0.8936450966836987  0.27090391022395716  0.0164895639468341  1.0000
  C   C57       1.0  0.4233357667299558  0.903773936600693  0.46357745909983805  1.0000
  C   C58       1.0  0.33806464916251144  0.8045932021104036  0.4294098174286346  1.0000
  C   C59       1.0  0.43119431293139593  0.9861197547609064  0.5374425102911643  1.0000
  C   C60       1.0  0.4926457012582617  0.9166040057822825  0.4237474099148598  1.0000
  C   C61       1.0  0.45027229830024146  0.6785152025059275  0.5952166791241423  1.0000
  C   C62       1.0  0.46333704432386474  0.6430491510411613  0.7288856758567945  1.0000
  C   C63       1.0  0.6223997391159203  0.7455193178275723  0.7292790715720514  1.0000
  C   C64       1.0  0.07666246115389441  0.536417989649749  0.09622767406141715  1.0000
  C   C65       1.0  0.16193448300732874  0.5705863854132146  0.19540684034198808  1.0000
  C   C66       1.0  0.06880358194931797  0.4625521384305528  0.013881477399273407  1.0000
  C   C67       1.0  0.0073547324969994625  0.5762508718578304  0.08339645930204397  1.0000
  C   C68       1.0  0.04972794547747122  0.4047836563121192  0.32148374453527845  1.0000
  C   C69       1.0  0.036663587527535  0.27111505526476515  0.35695129541994663  1.0000
  C   C70       1.0  0.8775995889734389  0.27072084695764426  0.25447988679911754  1.0000
  C   C71       1.0  0.9803672926100974  0.9037679613490965  0.44014610145732275  1.0000
  C   C72       1.0  0.9664655994204027  0.8046224344732876  0.3751259128776425  1.0000
  C   C73       1.0  0.054812244666656684  0.9860854288591268  0.44855063146380286  1.0000
  C   C74       1.0  0.9239954499557257  0.9166146796009826  0.49292454687968484  1.0000
  C   C75       1.0  0.728236012600405  0.6785378447475806  0.08335424758750763  1.0000
  C   C76       1.0  0.6794473324912857  0.6431010065546373  0.914187294060234  1.0000
  C   C77       1.0  0.6229275478230392  0.7455309143714003  0.016467541186344012  1.0000
  C   C78       1.0  0.5401710063703149  0.5597500577109286  0.46352202279661725  1.0000
  C   C79       1.0  0.5912812737911963  0.6247100080969048  0.42932212181161583  1.0000
  C   C80       1.0  0.6062354173532968  0.5513774556215978  0.5374454921634921  1.0000
  C   C81       1.0  0.4310248633003581  0.5070222971125772  0.4236629667166411  1.0000
  C   C82       1.0  0.6447982277486943  0.9165522204295298  0.5952318299531071  1.0000
  C   C83       1.0  0.7651261302651164  0.08568042528315088  0.7288945441601271  1.0000
  C   C84       1.0  0.6063548654613554  0.9835097848516763  0.7290967431580098  1.0000
  S   S1        1.0  0.3343212309695289  0.49406668259879166  0.8196359668952836  1.0000
  S   S2        1.0  0.8401879071987253  0.3255307306050809  0.5058664590670501  1.0000
  S   S3        1.0  0.5146054813792205  0.18037311411193005  0.6743344750325946  1.0000
  S   S4        1.0  0.9853915107824776  0.3256631181143135  0.8196249915028772  1.0000
  S   S5        1.0  0.16567832369598534  0.1803639226007405  0.5059332153717904  1.0000
  S   S6        1.0  0.6598135162432754  0.4941323576022256  0.674469847309389  1.0000
  S   S7        1.0  0.6656788109669804  0.5059347170219867  0.18036612935178192  1.0000
  S   S8        1.0  0.15981239145643394  0.6744684456254361  0.4941343215713871  1.0000
  S   S9        1.0  0.4853924076809122  0.8196253210458194  0.3256616732101634  1.0000
  S   S10       1.0  0.014606423509590676  0.6743367993035819  0.18037595854598715  1.0000
  S   S11       1.0  0.8343210367599522  0.8196374770361528  0.4940680692960838  1.0000
  S   S12       1.0  0.3401870915508026  0.5058660774946162  0.3255319833883447  1.0000
  N   N1        1.0  0.1802288051142824  0.008240697803408598  0.6903541589772146  1.0000
  N   N2        1.0  0.1718598284574781  0.6821254175464871  0.9916791104092795  1.0000
  N   N3        1.0  0.4900474943599491  0.3096428898317427  0.3177910908923209  1.0000
  N   N4        1.0  0.009955004737307068  0.6822106202093677  0.6903585281932009  1.0000
  N   N5        1.0  0.31977072155140013  0.30964665162014166  0.9917597405272929  1.0000
  N   N6        1.0  0.32813946245997266  0.0083209266427318  0.3178740136103784  1.0000
  N   N7        1.0  0.8197690749604475  0.991757737358796  0.30964503443829006  1.0000
  N   N8        1.0  0.8281394777811216  0.31787449983472266  0.008320417625228047  1.0000
  N   N9        1.0  0.5099538021030127  0.6903555452454169  0.6822091152464081  1.0000
  N   N10       1.0  0.990045409540855  0.31779152052897075  0.30964332957376667  1.0000
  N   N11       1.0  0.6802292679648474  0.6903532657440578  0.00823999005185516  1.0000
  N   N12       1.0  0.6718616911102514  0.9916826963333917  0.682129194300053  1.0000
  O   O1        1.0  0.37377785364858346  0.30646401001658324  0.7348245961239428  1.0000
  O   O2        1.0  0.5480226865479167  0.3899565718557055  0.7965875643584326  1.0000
  O   O3        1.0  0.2782301952486463  0.07973987576360028  0.6313531033106017  1.0000
  O   O4        1.0  0.0673181935398404  0.4282507825792123  0.6934056429894396  1.0000
  O   O5        1.0  0.15796559762575407  0.4063962340466175  0.6098240840474459  1.0000
  O   O6        1.0  0.19848515824698862  0.5517433044105643  0.9201196219524447  1.0000
  O   O7        1.0  0.6390287019813456  0.2651740570042307  0.5716601821918844  1.0000
  O   O8        1.0  0.7515295417573071  0.2034434879633693  0.5935393375624257  1.0000
  O   O9        1.0  0.6469021205794618  0.3686632223837876  0.448465648168593  1.0000
  O   O10       1.0  0.8609755341063874  0.42834266757505185  0.7348282119723847  1.0000
  O   O11       1.0  0.7484713999543899  0.4064615927830245  0.7965562417107321  1.0000
  O   O12       1.0  0.853101401391939  0.5515351283607756  0.6313351868102046  1.0000
  O   O13       1.0  0.12622542697732084  0.26517460296656736  0.6935375762723125  1.0000
  O   O14       1.0  0.951981174206047  0.20341472256975376  0.6100478908059442  1.0000
  O   O15       1.0  0.22176915901117414  0.3686472130183843  0.9202616463590658  1.0000
  O   O16       1.0  0.43267853987541127  0.30659347280145255  0.5717464282151496  1.0000
  O   O17       1.0  0.3420349399778573  0.39017642938338776  0.593602724365894  1.0000
  O   O18       1.0  0.30151396292983185  0.07988058779782387  0.448255267851458  1.0000
  O   O19       1.0  0.626224615853758  0.6935381306680526  0.26517604217330165  1.0000
  O   O20       1.0  0.45198021310757486  0.6100477922004044  0.20341337402297896  1.0000
  O   O21       1.0  0.721767375687165  0.9202593005322798  0.36864504004561394  1.0000
  O   O22       1.0  0.93267968294073  0.5717476525847758  0.3065947684951595  1.0000
  O   O23       1.0  0.8420361271932748  0.5936044244028975  0.3901770312100011  1.0000
  O   O24       1.0  0.8015147770519205  0.44825513069794454  0.0798783519933437  1.0000
  O   O25       1.0  0.360972717292931  0.7348273425771833  0.42833866493717193  1.0000
  O   O26       1.0  0.24847003557658096  0.7965542060204526  0.4064540025870541  1.0000
  O   O27       1.0  0.35310154204366734  0.6313344715051128  0.5515337795251581  1.0000
  O   O28       1.0  0.1390248837659271  0.5716594731614961  0.2651724277254814  1.0000
  O   O29       1.0  0.25152796409570755  0.5935398068520924  0.20344382488803342  1.0000
  O   O30       1.0  0.14689765172217054  0.4484670124089051  0.36866443876382954  1.0000
  O   O31       1.0  0.8737776047884226  0.7348245731959154  0.3064640145447015  1.0000
  O   O32       1.0  0.04802196958853947  0.7965874181023337  0.38995599520870167  1.0000
  O   O33       1.0  0.7782304545692683  0.6313519632300312  0.07973954076927463  1.0000
  O   O34       1.0  0.5673183495798356  0.6934057035105423  0.4282509035618744  1.0000
  O   O35       1.0  0.6579706766145037  0.6098279346127028  0.4064045055050514  1.0000
  O   O36       1.0  0.6984864513483302  0.9201215529405078  0.5517465899155098  1.0000
