data_image0
_chemical_formula_structural       Gd16H120C96N24O96
_chemical_formula_sum              "Gd16 H120 C96 N24 O96"
_cell_length_a       11.6899863981392
_cell_length_b       19.002256031045775
_cell_length_c       18.999253206209346
_cell_angle_alpha    84.57165386122774
_cell_angle_beta     72.09010566545533
_cell_angle_gamma    72.07598798571293

_space_group_name_H-M_alt    "P 1"
_space_group_IT_number       1

loop_
  _space_group_symop_operation_xyz
  'x, y, z'

loop_
  _atom_site_type_symbol
  _atom_site_label
  _atom_site_symmetry_multiplicity
  _atom_site_fract_x
  _atom_site_fract_y
  _atom_site_fract_z
  _atom_site_occupancy
  Gd  Gd1       1.0  0.9410039441394102  0.1058064026174748  0.5218057399223425  1.0000
  Gd  Gd2       1.0  0.06859278135907239  0.39417853605941394  0.9781750984725761  1.0000
  Gd  Gd3       1.0  0.4629275699449663  0.47819431411944197  0.6057605883883355  1.0000
  Gd  Gd4       1.0  0.04672651015946624  0.021817377213302798  0.894187295802439  1.0000
  Gd  Gd5       1.0  0.058997791387902225  0.8941975877185799  0.4781950408511477  1.0000
  Gd  Gd6       1.0  0.9314067753264011  0.6058193704843333  0.02182639960818727  1.0000
  Gd  Gd7       1.0  0.5370763236315736  0.5218046983874558  0.39423425699201425  1.0000
  Gd  Gd8       1.0  0.953271525685501  0.9781805294290961  0.10581123957729224  1.0000
  Gd  Gd9       1.0  0.6707831404135971  0.1349344765270075  0.7018879500699813  1.0000
  Gd  Gd10      1.0  0.007613889502216637  0.36510118339509023  0.7980714276801067  1.0000
  Gd  Gd11      1.0  0.3728146279618654  0.29812979968426845  0.6348923784765005  1.0000
  Gd  Gd12      1.0  0.8057777833091748  0.2019128321055206  0.8650439716371922  1.0000
  Gd  Gd13      1.0  0.32921785051015434  0.8650673015288534  0.2981110913748494  1.0000
  Gd  Gd14      1.0  0.9923854196464884  0.634898935501397  0.20192832129319524  1.0000
  Gd  Gd15      1.0  0.6271885023169189  0.7018708720980413  0.3651050857380795  1.0000
  Gd  Gd16      1.0  0.19422202544920703  0.7980856275097281  0.13495700072095929  1.0000
  H   H1        1.0  0.5167505594959819  0.0301755663136021  0.7442608875956012  1.0000
  H   H2        1.0  0.7911655868156872  0.46993522153985623  0.7556433958282085  1.0000
  H   H3        1.0  0.2614509834874425  0.25553857223206944  0.5301161701743098  1.0000
  H   H4        1.0  0.5472168760125982  0.2444064570039188  0.9698764186168988  1.0000
  H   H5        1.0  0.483246610297691  0.9698256588564288  0.2557404386079511  1.0000
  H   H6        1.0  0.2088325085342858  0.5300660035750511  0.24435880001469454  1.0000
  H   H7        1.0  0.7385490527895011  0.7444615466237894  0.4698837507511158  1.0000
  H   H8        1.0  0.45278305751079967  0.7555953211041597  0.03012367429812456  1.0000
  H   H9        1.0  0.1687490841122923  0.141224315369989  0.5172026007013741  1.0000
  H   H10       1.0  0.3272201171126098  0.3587610224343437  0.982729739912145  1.0000
  H   H11       1.0  0.6863066172120181  0.4826204147782532  0.6411091993900655  1.0000
  H   H12       1.0  0.3099918702521194  0.0172734391352733  0.8587544060615713  1.0000
  H   H13       1.0  0.8312528453069343  0.8587769095273075  0.4828011525894169  1.0000
  H   H14       1.0  0.672773409960847  0.6412435214287057  0.01727176819716188  1.0000
  H   H15       1.0  0.3136895313508246  0.5173791512092053  0.3588903874973113  1.0000
  H   H16       1.0  0.6900083469775636  0.9827244673852743  0.14124464517455237  1.0000
  H   H17       1.0  0.6407622227092559  0.9215933777034595  0.6497731544326726  1.0000
  H   H18       1.0  0.7121130180448954  0.578493097642216  0.8501671357681246  1.0000
  H   H19       1.0  0.2906919907392263  0.3500106755087487  0.4214679877516758  1.0000
  H   H20       1.0  0.5624106422266589  0.14994327391271162  0.07852439255727006  1.0000
  H   H21       1.0  0.3592402470253191  0.0784072941020568  0.35022675662654024  1.0000
  H   H22       1.0  0.2878853119026629  0.4215064682233844  0.1498329669756444  1.0000
  H   H23       1.0  0.7093068969990031  0.6499905495858656  0.5785298401370511  1.0000
  H   H24       1.0  0.4375872372199224  0.8500557388958966  0.9214755382218841  1.0000
  H   H25       1.0  0.6971140378828619  0.9377028734212016  0.7217929660920034  1.0000
  H   H26       1.0  0.8566838347156389  0.5623621192651952  0.7781893099859829  1.0000
  H   H27       1.0  0.41925799547540504  0.2781448775610542  0.43759567926750265  1.0000
  H   H28       1.0  0.6352279912273672  0.22181024099730004  0.06232906225533697  1.0000
  H   H29       1.0  0.3028842384198497  0.0622961393583878  0.2782083600615977  1.0000
  H   H30       1.0  0.1433157219698344  0.4376357872785519  0.2218121880947805  1.0000
  H   H31       1.0  0.5807435066731871  0.7218546881478928  0.5624012690657025  1.0000
  H   H32       1.0  0.364770603732289  0.7781893248363688  0.9376743569724297  1.0000
  H   H33       1.0  0.8678829776068395  0.135142213892415  0.38001008106730433  1.0000
  H   H34       1.0  0.8829717240745223  0.36485727990503863  0.11995431715283894  1.0000
  H   H35       1.0  0.24807553523890372  0.6199487723251664  0.6350518799979029  1.0000
  H   H36       1.0  0.0030440383594264537  0.8800573947650251  0.8649499923862862  1.0000
  H   H37       1.0  0.13212729211028307  0.8648584574807999  0.6199910237781268  1.0000
  H   H38       1.0  0.11702334961265116  0.6351400738138294  0.8800447538282016  1.0000
  H   H39       1.0  0.7519280410047102  0.38004968708989406  0.364948031011366  1.0000
  H   H40       1.0  0.9969454051147365  0.1199405123299684  0.13505171716141012  1.0000
  H   H41       1.0  0.04126139401274288  0.2333854803471596  0.5940997323289636  1.0000
  H   H42       1.0  0.3688730307678368  0.2665237950665897  0.9059118424964582  1.0000
  H   H43       1.0  0.6354578494992894  0.4058233293551368  0.7333586754672439  1.0000
  H   H44       1.0  0.2746807324404158  0.09413994083858061  0.7665433574033216  1.0000
  H   H45       1.0  0.9587408947690929  0.766617403793667  0.40590104841955105  1.0000
  H   H46       1.0  0.631119091157842  0.7334785365394652  0.0940903731288216  1.0000
  H   H47       1.0  0.3645406730161793  0.5941734711094638  0.26663724109074843  1.0000
  H   H48       1.0  0.7253164444322806  0.9058579658415341  0.23345692713382238  1.0000
  H   H49       1.0  0.1330392823000607  0.18173608313094286  0.6522063595617382  1.0000
  H   H50       1.0  0.4670477541586562  0.3181716672469364  0.8477366463270785  1.0000
  H   H51       1.0  0.7853040547350004  0.3476173104619988  0.6817363312284215  1.0000
  H   H52       1.0  0.31468608568530937  0.15228802517977869  0.8182149356077275  1.0000
  H   H53       1.0  0.8669571487502021  0.8182656951453922  0.34779811118616516  1.0000
  H   H54       1.0  0.5329479788538691  0.6818317703251396  0.15226590334873438  1.0000
  H   H55       1.0  0.2146984511690847  0.6523817021087196  0.3182607890444302  1.0000
  H   H56       1.0  0.6853214215209461  0.8477060093789746  0.1817814769868207  1.0000
  H   H57       1.0  0.42767971511117503  0.024917801466159496  0.6486089911251867  1.0000
  H   H58       1.0  0.6012967764601385  0.475199372342054  0.8512349650678318  1.0000
  H   H59       1.0  0.07672945779049195  0.35127123141813843  0.5247402049328825  1.0000
  H   H60       1.0  0.4528841045587341  0.1486608318867795  0.9752413981099864  1.0000
  H   H61       1.0  0.5723194376391375  0.9750834235965299  0.35139215324753076  1.0000
  H   H62       1.0  0.3987032423414831  0.5247985341929962  0.14876338848107204  1.0000
  H   H63       1.0  0.9232727527921439  0.6487322058057927  0.47526127351534336  1.0000
  H   H64       1.0  0.5471146022267561  0.8513426055431524  0.024757299468042455  1.0000
  H   H65       1.0  0.5594008783900222  0.0459446804019379  0.5829430646849971  1.0000
  H   H66       1.0  0.6882147783366643  0.4541992674555431  0.9169435104882241  1.0000
  H   H67       1.0  0.14275767708765819  0.4168774791916904  0.5458190970159436  1.0000
  H   H68       1.0  0.6056907870614977  0.08308190164618878  0.9539976810031591  1.0000
  H   H69       1.0  0.44060116539792193  0.9540543321774634  0.41705720011971426  1.0000
  H   H70       1.0  0.3117823739816784  0.5457997453936798  0.08305624833879927  1.0000
  H   H71       1.0  0.857247197014047  0.5831220863083432  0.4541825532970023  1.0000
  H   H72       1.0  0.39430487936699876  0.9169215359433098  0.046002249875890286  1.0000
  H   H73       1.0  0.6753410967717101  0.21287894021666887  0.40531997816756876  1.0000
  H   H74       1.0  0.7935296265027248  0.2871436983016836  0.09458066798297439  1.0000
  H   H75       1.0  0.08081923716575518  0.5946484430733677  0.7127645067444632  1.0000
  H   H76       1.0  0.887965626247663  0.9052919781846067  0.7874014296810471  1.0000
  H   H77       1.0  0.324667240316323  0.7871134350492496  0.5946764343895197  1.0000
  H   H78       1.0  0.20647270552765223  0.7128542081144288  0.9054162803127711  1.0000
  H   H79       1.0  0.9191865320777451  0.40534946315415965  0.28723260362471587  1.0000
  H   H80       1.0  0.11203110466020406  0.09470814086275682  0.2125964080614082  1.0000
  H   H81       1.0  0.726394780919776  0.2801485222875968  0.43581841630940943  1.0000
  H   H82       1.0  0.9423566676806414  0.2198515843634539  0.06411457122634791  1.0000
  H   H83       1.0  0.1622632405539049  0.5642937910946487  0.7801092099446336  1.0000
  H   H84       1.0  0.006155467597871312  0.9357141271060523  0.7199653960948638  1.0000
  H   H85       1.0  0.27360343333506176  0.7198532559336498  0.5641780162173546  1.0000
  H   H86       1.0  0.05764442599664916  0.7801485344401942  0.935884298228892  1.0000
  H   H87       1.0  0.8377382079498403  0.4357052215282877  0.21988896179840373  1.0000
  H   H88       1.0  0.9938432708209886  0.06428488566484702  0.28003278552687755  1.0000
  H   H89       1.0  0.164796570989509  0.0460588084914448  0.6479284460311376  1.0000
  H   H90       1.0  0.35853130978777853  0.45388134201845537  0.8519121035313333  1.0000
  H   H91       1.0  0.8125331475674286  0.35180558477718893  0.5459594478371341  1.0000
  H   H92       1.0  0.2106552357885716  0.1480408947620049  0.9538795553266796  1.0000
  H   H93       1.0  0.835207791887349  0.9539429693555022  0.3520752973934336  1.0000
  H   H94       1.0  0.6414654631497569  0.5461198831805945  0.14808782729776482  1.0000
  H   H95       1.0  0.18747540741727392  0.6481978521334356  0.45403572178996393  1.0000
  H   H96       1.0  0.7893413457999189  0.8519570119616376  0.046118636148790366  1.0000
  H   H97       1.0  0.29733000002917703  0.0521342044927309  0.5745231231390308  1.0000
  H   H98       1.0  0.4241220259832443  0.44778074588222694  0.9251208114607222  1.0000
  H   H99       1.0  0.8721336391054915  0.42496128544818396  0.5520763509983198  1.0000
  H   H100      1.0  0.3493569960958851  0.07477978596680401  0.9478127697023027  1.0000
  H   H101      1.0  0.7026706069776197  0.9478670204887153  0.42547836513794834  1.0000
  H   H102      1.0  0.5758727148889519  0.5522226917624025  0.07487824977896912  1.0000
  H   H103      1.0  0.1278633297172362  0.575046023650529  0.44792304435434005  1.0000
  H   H104      1.0  0.6506418379974974  0.9252208860417991  0.05218628159625626  1.0000
  H   H105      1.0  0.9103671245665976  0.2622705465664481  0.33914800920938143  1.0000
  H   H106      1.0  0.011702287362723435  0.23769291026059144  0.1608042212416905  1.0000
  H   H107      1.0  0.24960736041023768  0.6609148408547085  0.7621242801787886  1.0000
  H   H108      1.0  0.17244976312230845  0.8392468097157604  0.7376765639947181  1.0000
  H   H109      1.0  0.08963719628057705  0.737730125128806  0.66085364112854  1.0000
  H   H110      1.0  0.9882866448865923  0.7623072091813156  0.839199581417631  1.0000
  H   H111      1.0  0.7504012591652155  0.3390797467000937  0.23787701623881924  1.0000
  H   H112      1.0  0.8275456117464728  0.1607488847363783  0.26232303268395185  1.0000
  H   H113      1.0  0.03593871080697394  0.18104614342789196  0.3404427700012107  1.0000
  H   H114      1.0  0.05727189526459842  0.3189067216571857  0.1596078637125515  1.0000
  H   H115      1.0  0.37666742630156574  0.6594089216524353  0.6809656317233176  1.0000
  H   H116      1.0  0.21689325202943613  0.8404861781374606  0.8188996737258948  1.0000
  H   H117      1.0  0.9640642921639181  0.8189572937757532  0.6595543404928391  1.0000
  H   H118      1.0  0.9427196934247634  0.68109284455074  0.8403971524778983  1.0000
  H   H119      1.0  0.6233369016246328  0.3405884315528951  0.3190349769482026  1.0000
  H   H120      1.0  0.7830996661513794  0.1595100694963989  0.18110656581195164  1.0000
  C   C1        1.0  0.6712863720170646  0.9619339849483737  0.6719003230771676  1.0000
  C   C2        1.0  0.8051133538174257  0.5381462968710622  0.8280443645150726  1.0000
  C   C3        1.0  0.3433793342037533  0.3279700131848955  0.4618132976781055  1.0000
  C   C4        1.0  0.6333517816789183  0.17197939645896554  0.03814905043241614  1.0000
  C   C5        1.0  0.32871780404689577  0.03806723984740049  0.3280994061637017  1.0000
  C   C6        1.0  0.19488502523883258  0.46185105665630727  0.17195678964893799  1.0000
  C   C7        1.0  0.656621639244662  0.672029552550164  0.5381841763901961  1.0000
  C   C8        1.0  0.3666461397973392  0.8280207225013355  0.9618529734333876  1.0000
  C   C9        1.0  0.43379016062790005  0.13857206844802764  0.6452037826214082  1.0000
  C   C10       1.0  0.7175785874986146  0.3615129784263544  0.8547147447209226  1.0000
  C   C11       1.0  0.07935403596358266  0.35464816442453895  0.6384530280674383  1.0000
  C   C12       1.0  0.5723755146254775  0.1454138408972057  0.8614723855975727  1.0000
  C   C13       1.0  0.5662098756490505  0.861428050407838  0.3547961383040246  1.0000
  C   C14       1.0  0.28241964677442155  0.6384849282015423  0.1452844883460358  1.0000
  C   C15       1.0  0.9206473763706453  0.6453525074331947  0.36154793446196726  1.0000
  C   C16       1.0  0.4276175619470024  0.8545901499088516  0.13852895054711206  1.0000
  C   C17       1.0  0.945322464797854  0.172750463933447  0.6755120123049849  1.0000
  C   C18       1.0  0.2936592553006177  0.32706265863532025  0.8244567424517442  1.0000
  C   C19       1.0  0.6208077308640582  0.3244510789692754  0.672770515228578  1.0000
  C   C20       1.0  0.118001253310794  0.17552320788484374  0.8271625645963283  1.0000
  C   C21       1.0  0.054676982055049395  0.8272524203524368  0.3244906994317773  1.0000
  C   C22       1.0  0.7063409057413493  0.6729407787133752  0.17554229903054613  1.0000
  C   C23       1.0  0.37919217932385846  0.6755457214315044  0.32722312643689827  1.0000
  C   C24       1.0  0.8819978457946787  0.8244774640918279  0.17283980318622832  1.0000
  C   C25       1.0  0.7901977131126967  0.9732549116447515  0.6164848854950193  1.0000
  C   C26       1.0  0.8798170738724733  0.5267561682706087  0.8835374166341977  1.0000
  C   C27       1.0  0.40654316171814026  0.38352032237097694  0.4731951965491348  1.0000
  C   C28       1.0  0.7634809354395812  0.11648102826110573  0.026800499955946588  1.0000
  C   C29       1.0  0.20980625744417827  0.0267496316554627  0.3835151877250312  1.0000
  C   C30       1.0  0.12018308263333927  0.473244503653845  0.11646389967816619  1.0000
  C   C31       1.0  0.5934570354933439  0.6164814557429209  0.5268010541467945  1.0000
  C   C32       1.0  0.23651852557136915  0.8835152190449379  0.9732001284479993  1.0000
  C   C33       1.0  0.06752055702645512  0.17999871658655306  0.6220510503725762  1.0000
  C   C34       1.0  0.3696678895941756  0.3198808742663175  0.877909800047277  1.0000
  C   C35       1.0  0.6896553959456635  0.3778379939727827  0.6799870318792146  1.0000
  C   C36       1.0  0.24749970650167782  0.12210610195633363  0.8199249814760847  1.0000
  C   C37       1.0  0.9324767259170623  0.8200063801419901  0.37795271288431553  1.0000
  C   C38       1.0  0.6303290817714282  0.680120350918223  0.12209082846904803  1.0000
  C   C39       1.0  0.31034485745353624  0.6221582533129676  0.3200092285705551  1.0000
  C   C40       1.0  0.7525014362843125  0.8778918045090833  0.18007493939939684  1.0000
  C   C41       1.0  0.49663862145490595  0.05591380050533702  0.6402143881530833  1.0000
  C   C42       1.0  0.6928450323385106  0.4441636340448553  0.859658975722418  1.0000
  C   C43       1.0  0.1372850986596105  0.3596049263010812  0.555781551352581  1.0000
  C   C44       1.0  0.5527757721527208  0.1403598553350918  0.9441321188225942  1.0000
  C   C45       1.0  0.5033617871238291  0.9440874244906181  0.3597864024366757  1.0000
  C   C46       1.0  0.30715437956374103  0.5558348255994119  0.1403406012612862  1.0000
  C   C47       1.0  0.8627182184320717  0.6403962985324014  0.444219927045701  1.0000
  C   C48       1.0  0.44722146876112123  0.8596441352417586  0.05586955134764785  1.0000
  C   C49       1.0  0.6605544619797213  0.21008220698887922  0.5198166217334119  1.0000
  C   C50       1.0  0.8904759933812301  0.28995722883583847  0.9801058420350515  1.0000
  C   C51       1.0  0.1805678625535803  0.48017650107129134  0.7101199720264546  1.0000
  C   C52       1.0  0.870323062984781  0.0198067345631117  0.7900021022858894  1.0000
  C   C53       1.0  0.33944749066984753  0.7899179117770531  0.48018049856441536  1.0000
  C   C54       1.0  0.10952845477384436  0.7100406774380872  0.019896162023400183  1.0000
  C   C55       1.0  0.8194325531041641  0.5198214054347405  0.2898797768968961  1.0000
  C   C56       1.0  0.12967862597670887  0.9801933841970082  0.20999886023101763  1.0000
  C   C57       1.0  0.7307572180301561  0.22112329961021976  0.4395592104221464  1.0000
  C   C58       1.0  0.8914480423664768  0.27888764554056417  0.06036795496741118  1.0000
  C   C59       1.0  0.1704426519964669  0.5604497316447237  0.7210795310739968  1.0000
  C   C60       1.0  0.9516041917128316  0.9395520076027569  0.7790172007729268  1.0000
  C   C61       1.0  0.2692462670750829  0.7788762659913786  0.560437556080231  1.0000
  C   C62       1.0  0.10855472854970571  0.7211113669982223  0.9396324817894312  1.0000
  C   C63       1.0  0.8295615311465098  0.43954817466112667  0.2789191565004572  1.0000
  C   C64       1.0  0.04839291149681192  0.06044921758469711  0.22098150663385502  1.0000
  C   C65       1.0  0.19887758030247218  0.05273186489530699  0.5874758925235923  1.0000
  C   C66       1.0  0.33907097514756396  0.44719144776069447  0.9123491053470475  1.0000
  C   C67       1.0  0.7864538226288287  0.41223068410960195  0.5526904390676463  1.0000
  C   C68       1.0  0.2515289740172903  0.0876072439314157  0.9472076178951453  1.0000
  C   C69       1.0  0.801121830380914  0.9472726786253675  0.41252960999952387  1.0000
  C   C70       1.0  0.6609227083242856  0.5528119899361528  0.08765100736283662  1.0000
  C   C71       1.0  0.21354825478576317  0.5877727531491673  0.44730580178703866  1.0000
  C   C72       1.0  0.7484690081828305  0.9123901096249722  0.052792140894418076  1.0000
  C   C73       1.0  0.19307193271392004  0.9855397455116728  0.5524922863469044  1.0000
  C   C74       1.0  0.23104367814053703  0.5143209147534904  0.947497500208435  1.0000
  C   C75       1.0  0.7456213280216061  0.4474729192700054  0.48556097407237786  1.0000
  C   C76       1.0  0.17861809796355024  0.052518626515819705  0.01433964487696929  1.0000
  C   C77       1.0  0.8069292088532051  0.0144642448301582  0.4475135600679891  1.0000
  C   C78       1.0  0.7689510627316594  0.48568252289113906  0.052501561031256486  1.0000
  C   C79       1.0  0.25438052187442384  0.552528858748147  0.5144363182150399  1.0000
  C   C80       1.0  0.8213817715187014  0.9474770676955161  0.985659062404949  1.0000
  C   C81       1.0  0.9878912051926181  0.2534491391039708  0.43131994557010966  1.0000
  C   C82       1.0  0.17259429580721528  0.24657208995989768  0.06875727932156647  1.0000
  C   C83       1.0  0.41909757722962127  0.5686846525441354  0.7535059969169993  1.0000
  C   C84       1.0  0.2411816925535885  0.9313450727145638  0.7465799532295134  1.0000
  C   C85       1.0  0.0121190515853228  0.7465520853726773  0.568677317068719  1.0000
  C   C86       1.0  0.8274035965785412  0.7534263697452772  0.9312464936641902  1.0000
  C   C87       1.0  0.58090703893901  0.4313115944978989  0.24649129524554775  1.0000
  C   C88       1.0  0.7588149756371364  0.06864896239830642  0.2534236575829141  1.0000
  C   C89       1.0  0.9493657345785279  0.21863554754038003  0.3753160342313251  1.0000
  C   C90       1.0  0.043208909917190355  0.28134784073009206  0.1246916890529874  1.0000
  C   C91       1.0  0.3247696325295308  0.6246564068451123  0.7185704770212171  1.0000
  C   C92       1.0  0.16783883855160286  0.8753592476025958  0.7813422126957903  1.0000
  C   C93       1.0  0.05064079674385592  0.7813667832881421  0.6246843828430358  1.0000
  C   C94       1.0  0.9567851904289877  0.7186517253443797  0.8753126195715311  1.0000
  C   C95       1.0  0.6752348272407075  0.3753409463631242  0.28142821054075273  1.0000
  C   C96       1.0  0.8321559003273151  0.12463534070362667  0.21866035653764018  1.0000
  N   N1        1.0  0.5734904143366605  0.03285906567808889  0.6917014350001908  1.0000
  N   N2        1.0  0.7980986704697979  0.46723109903953747  0.8081892089569038  1.0000
  N   N3        1.0  0.2655758670124087  0.3081115904678242  0.5327381305581014  1.0000
  N   N4        1.0  0.6065528418019281  0.19182941983522286  0.9672134509663266  1.0000
  N   N5        1.0  0.4265112500704831  0.9671421592511464  0.30829900180659564  1.0000
  N   N6        1.0  0.20190116284293674  0.532766254406596  0.19181228911136827  1.0000
  N   N7        1.0  0.7344269575486203  0.6918879751569663  0.4672610827889087  1.0000
  N   N8        1.0  0.39344550562095987  0.808172358351186  0.03278821915397148  1.0000
  N   N9        1.0  0.11962769390493105  0.1221802422952294  0.5654243412201794  1.0000
  N   N10       1.0  0.3072714801426384  0.37775024131227036  0.9344845281027717  1.0000
  N   N11       1.0  0.6852242738114641  0.434411137388551  0.6221335164559179  1.0000
  N   N12       1.0  0.2418087057380231  0.06550419807564369  0.8777663831271668  1.0000
  N   N13       1.0  0.8803710432950705  0.8778248543520846  0.43457976594097386  1.0000
  N   N14       1.0  0.6927249379684425  0.6222520900674909  0.06551610043852917  1.0000
  N   N15       1.0  0.3147756713271049  0.5655900876538452  0.3778632599626163  1.0000
  N   N16       1.0  0.7581912594187515  0.9344931553733956  0.122233193831569  1.0000
  N   N17       1.0  0.8625984424978412  0.1756799555306898  0.4134435665227301  1.0000
  N   N18       1.0  0.9516724139770716  0.32431939311452135  0.08652502785741227  1.0000
  N   N19       1.0  0.2761558898094592  0.5865236964219773  0.6756140694854693  1.0000
  N   N20       1.0  0.03816387507146118  0.913476806655794  0.8243597963421009  1.0000
  N   N21       1.0  0.1374073616963114  0.824322375338447  0.5865566785995071  1.0000
  N   N22       1.0  0.048327448426157014  0.6756796195867378  0.9134747210909141  1.0000
  N   N23       1.0  0.7238474098068933  0.41347531609069677  0.32438584153628375  1.0000
  N   N24       1.0  0.961828579669202  0.08651944102449961  0.17564242902452784  1.0000
  O   O1        1.0  0.8706977697388393  0.9174142557313587  0.5813571434062866  1.0000
  O   O2        1.0  0.8692600753004527  0.582563137134052  0.9187577178990837  1.0000
  O   O3        1.0  0.4518562144815377  0.41866874688972183  0.41733519053968143  1.0000
  O   O4        1.0  0.7880920580007497  0.08134205861115619  0.08266715179983913  1.0000
  O   O5        1.0  0.1293090627651594  0.08258641583044121  0.4186437993657108  1.0000
  O   O6        1.0  0.1307395350298606  0.417435322495706  0.0812425567718407  1.0000
  O   O7        1.0  0.5481483234879004  0.581328053235417  0.582662799322577  1.0000
  O   O8        1.0  0.21190119620718662  0.9186508705589272  0.9173296639461981  1.0000
  O   O9        1.0  0.3476113139005789  0.17047319381627096  0.6165986719847893  1.0000
  O   O10       1.0  0.6346257055673732  0.3296891195196281  0.8833618029041405  1.0000
  O   O11       1.0  0.9646002999038499  0.3833057350706426  0.6702933488554166  1.0000
  O   O12       1.0  0.517940101703637  0.11686686269550962  0.8296505082441286  1.0000
  O   O13       1.0  0.65239055601365  0.8295247126085313  0.3834014208428229  1.0000
  O   O14       1.0  0.3653750578378093  0.6703109992956158  0.11663828997341594  1.0000
  O   O15       1.0  0.03540566068868865  0.6166954896322919  0.3297055008673908  1.0000
  O   O16       1.0  0.48206213343335236  0.8831354683593063  0.17035149591421828  1.0000
  O   O17       1.0  0.8835821418013406  0.14025594436134267  0.6508034839358813  1.0000
  O   O18       1.0  0.17469334974918355  0.3594907223845142  0.8491920503568053  1.0000
  O   O19       1.0  0.5343892652313471  0.34919866888627377  0.6402598532780743  1.0000
  O   O20       1.0  0.02380381926170111  0.15078161141320828  0.8596251656399119  1.0000
  O   O21       1.0  0.11641274131120136  0.8597530240969248  0.34919626523719666  1.0000
  O   O22       1.0  0.8253064880996985  0.6405093964858608  0.15080717288139303  1.0000
  O   O23       1.0  0.4656119473508014  0.6508020030237134  0.3597332528610195  1.0000
  O   O24       1.0  0.9761951596148958  0.8492185074948749  0.14037580675570638  1.0000
  O   O25       1.0  0.47666539871764935  0.1768461805322659  0.6782421229833845  1.0000
  O   O26       1.0  0.8317354919917146  0.3231760877648924  0.8216394258880443  1.0000
  O   O27       1.0  0.1552067351456187  0.3216745717363311  0.6767958397566929  1.0000
  O   O28       1.0  0.6535663083624709  0.17839157718175608  0.8231285763087683  1.0000
  O   O29       1.0  0.52333581518851  0.8231544913399702  0.3217581418587939  1.0000
  O   O30       1.0  0.16826643156736043  0.6768223717459209  0.17835944352973598  1.0000
  O   O31       1.0  0.8447973697981722  0.6783238876526241  0.3232035455174795  1.0000
  O   O32       1.0  0.34642383514270836  0.8216135199558892  0.17687154631727248  1.0000
  O   O33       1.0  0.908458307028752  0.2003056088468966  0.7387145799872316  1.0000
  O   O34       1.0  0.3475725042087844  0.29958401423386505  0.7612278567766708  1.0000
  O   O35       1.0  0.6470562069735308  0.2612299580549333  0.7002945175893984  1.0000
  O   O36       1.0  0.10853637544221313  0.238757239002048  0.799673389837352  1.0000
  O   O37       1.0  0.09154147009626712  0.799697275427384  0.26128690832720736  1.0000
  O   O38       1.0  0.6524321734581233  0.7004244006190773  0.238769587855316  1.0000
  O   O39       1.0  0.3529439727626238  0.7387696077381561  0.29970016573000174  1.0000
  O   O40       1.0  0.8914611013932254  0.7612450922877515  0.20033334593684055  1.0000
  O   O41       1.0  0.8005562945906134  0.03885357018202029  0.6099510205623773  1.0000
  O   O42       1.0  0.9492207321407802  0.4611495683992927  0.8900528165401909  1.0000
  O   O43       1.0  0.41035412817562633  0.3900870705986251  0.5387957998817612  1.0000
  O   O44       1.0  0.8394258280226198  0.109947248082662  0.9612108923751492  1.0000
  O   O45       1.0  0.19944365640811404  0.9611504202468664  0.39005063972916787  1.0000
  O   O46       1.0  0.050778469718238795  0.5388494443251659  0.10994937925276818  1.0000
  O   O47       1.0  0.5896450782195398  0.6099147075500753  0.46120412108112413  1.0000
  O   O48       1.0  0.16057067536667793  0.8900512117240852  0.03878799680002486  1.0000
  O   O49       1.0  0.0815965208721751  0.9889534027947277  0.5472701175068408  1.0000
  O   O50       1.0  0.11774364626363373  0.5109549314850453  0.9527034748203462  1.0000
  O   O51       1.0  0.6288915663874449  0.45275955554231456  0.4889542896234786  1.0000
  O   O52       1.0  0.07056075925166988  0.047271921625480204  0.010951842256481794  1.0000
  O   O53       1.0  0.918406062012245  0.0110511405692932  0.4527322306057187  1.0000
  O   O54       1.0  0.8822488912123704  0.4890435285363921  0.04729577801649753  1.0000
  O   O55       1.0  0.3711126283707101  0.5472377976978535  0.5110410814545007  1.0000
  O   O56       1.0  0.9294350590390718  0.9527276443735746  0.9890489680532184  1.0000
  O   O57       1.0  0.5429693472565446  0.23845780117390797  0.5366953286705112  1.0000
  O   O58       1.0  0.8181578804754891  0.26157596746274697  0.9631919976071827  1.0000
  O   O59       1.0  0.07988666509045564  0.4632752244589186  0.7385446274516667  1.0000
  O   O60       1.0  0.7810361745492216  0.0366592064349405  0.7616676389507475  1.0000
  O   O61       1.0  0.45702977054311567  0.761538999247165  0.4633026809491482  1.0000
  O   O62       1.0  0.1818468197525007  0.7384224918826803  0.03680948072866385  1.0000
  O   O63       1.0  0.920114531340374  0.5367232350925093  0.26145407001398263  1.0000
  O   O64       1.0  0.21895882547490667  0.963341465791274  0.23832985489993055  1.0000
  O   O65       1.0  0.7221124112620669  0.17777139918554496  0.5649259144917593  1.0000
  O   O66       1.0  0.964771236320736  0.3222705720548262  0.9350197195536153  1.0000
  O   O67       1.0  0.2871971540875363  0.4350830086932973  0.677788606064979  1.0000
  O   O68       1.0  0.8996110270113244  0.06495198384369158  0.8222344437339616  1.0000
  O   O69       1.0  0.27788669237955305  0.8222320382153684  0.43507417846071655  1.0000
  O   O70       1.0  0.03523153005929895  0.677725675059719  0.06498299203330758  1.0000
  O   O71       1.0  0.7128017536688913  0.5649143448079669  0.32221202236394214  1.0000
  O   O72       1.0  0.10038629918073368  0.9350481351601373  0.17776548707016807  1.0000
  O   O73       1.0  0.9629884300382437  0.22567655998419417  0.49749125349995876  1.0000
  O   O74       1.0  0.18607720585637108  0.27431929798901683  0.0025738678549557838  1.0000
  O   O75       1.0  0.46064861305762145  0.5025559858322738  0.7256216887805779  1.0000
  O   O76       1.0  0.18847144517398828  0.997518043151224  0.7743274635621943  1.0000
  O   O77       1.0  0.0370294819390368  0.7743252171606726  0.5025052818280287  1.0000
  O   O78       1.0  0.813923871669601  0.7256786084560716  0.9974305929268326  1.0000
  O   O79       1.0  0.5393634553461266  0.4974380484682611  0.274376453213975  1.0000
  O   O80       1.0  0.8115196218942201  0.0024782045928902004  0.22567703669694342  1.0000
  O   O81       1.0  0.2880471048003768  0.9318961672329705  0.5328759170053702  1.0000
  O   O82       1.0  0.2527224607574107  0.5678795828729691  0.9673245164815257  1.0000
  O   O83       1.0  0.8209562241265965  0.467220215768272  0.4320139365117797  1.0000
  O   O84       1.0  0.22004234171269127  0.0328307694054644  0.06795316266801879  1.0000
  O   O85       1.0  0.7119548046006514  0.0681089292576829  0.46712503574521946  1.0000
  O   O86       1.0  0.7472647076507923  0.43212551444457153  0.03267229953922167  1.0000
  O   O87       1.0  0.17904733209881835  0.5327821152401456  0.5679831739572947  1.0000
  O   O88       1.0  0.7799597136904166  0.967167690108262  0.9320437856402181  1.0000
  O   O89       1.0  0.03978117005718207  0.3028758140699637  0.41033365773648717  1.0000
  O   O90       1.0  0.2529906024947763  0.19718174548108183  0.0897675388182009  1.0000
  O   O91       1.0  0.4496582019197316  0.5896318282217052  0.803123866261835  1.0000
  O   O92       1.0  0.3425946673009435  0.9103846038871664  0.6971878210290328  1.0000
  O   O93       1.0  0.9602241345272943  0.6971281760804118  0.5896653640008936  1.0000
  O   O94       1.0  0.7470079458990496  0.8028139487766595  0.9102360621529896  1.0000
  O   O95       1.0  0.5503508377421936  0.4103616531727141  0.19687219253726335  1.0000
  O   O96       1.0  0.6574030246634804  0.0896050064941178  0.3028187622632359  1.0000
