data_image0
_chemical_formula_structural       Ag2H24C34S4O4F14
_chemical_formula_sum              "Ag2 H24 C34 S4 O4 F14"
_cell_length_a       6.861964766111298
_cell_length_b       11.035068035278277
_cell_length_c       12.950214144898032
_cell_angle_alpha    87.42111224731742
_cell_angle_beta     83.97908033109913
_cell_angle_gamma    77.19812703551344

_space_group_name_H-M_alt    "P 1"
_space_group_IT_number       1

loop_
  _space_group_symop_operation_xyz
  'x, y, z'

loop_
  _atom_site_type_symbol
  _atom_site_label
  _atom_site_symmetry_multiplicity
  _atom_site_fract_x
  _atom_site_fract_y
  _atom_site_fract_z
  _atom_site_occupancy
  Ag  Ag1       1.0  0.4554928702813541  0.3710529742731907  0.503417809402272  1.0000
  Ag  Ag2       1.0  0.5445055606146169  0.6289463883559776  0.49658331630137537  1.0000
  H   H1        1.0  0.2418880407802959  0.2926757077239516  0.7075004040178783  1.0000
  H   H2        1.0  0.7581107330576417  0.7073227284314284  0.2924999634706182  1.0000
  H   H3        1.0  0.3104327603050335  0.17101346752727406  0.8698720649913338  1.0000
  H   H4        1.0  0.6895594799017105  0.8289867826545034  0.1301293737177218  1.0000
  H   H5        1.0  0.3855004664929352  0.9400727695040912  0.8686961648635501  1.0000
  H   H6        1.0  0.6144924649304925  0.05992561573568619  0.1313068463145868  1.0000
  H   H7        1.0  0.3900507961140675  0.8301606470551378  0.7041766216244764  1.0000
  H   H8        1.0  0.609942479584518  0.1698368087122404  0.2958264035633532  1.0000
  H   H9        1.0  0.3095477662150189  0.9531793632592095  0.5418138717778972  1.0000
  H   H10       1.0  0.6904502359029081  0.046817200472823096  0.45818737770860446  1.0000
  H   H11       1.0  0.9434390377606972  0.37931822693601447  0.4698073104668055  1.0000
  H   H12       1.0  0.0565633478345902  0.6206783712344618  0.5301929215335192  1.0000
  H   H13       1.0  0.9910418301165933  0.3724933812613855  0.602924819444631  1.0000
  H   H14       1.0  0.0089565994461864  0.6275059843663867  0.3970755340341653  1.0000
  H   H15       1.0  0.6734663955251888  0.4139111816392286  0.7361394835170784  1.0000
  H   H16       1.0  0.3265364175149585  0.5860882184269868  0.2638598524755409  1.0000
  H   H17       1.0  0.6603432319602902  0.38058191401258756  0.9276044520258109  1.0000
  H   H18       1.0  0.3396596669159351  0.6194212114245584  0.07239551839909099  1.0000
  H   H19       1.0  0.7482265987967338  0.16730608710605568  0.003408946690399296  1.0000
  H   H20       1.0  0.2517693363370554  0.8326960564589639  0.9965914465130864  1.0000
  H   H21       1.0  0.8445040156679511  0.9849109756591117  0.8874157599826374  1.0000
  H   H22       1.0  0.15548788159681953  0.015090200996461092  0.11258643694156938  1.0000
  H   H23       1.0  0.8571279041330653  0.017241596181726496  0.69562099109541  1.0000
  H   H24       1.0  0.14286579901038013  0.982758661481391  0.3043811380847146  1.0000
  C   C1        1.0  0.7024625278782821  0.44514098726463647  0.3077254912000526  1.0000
  C   C2        1.0  0.2975351259649129  0.5548565149356078  0.6922734276022311  1.0000
  C   C3        1.0  0.825582757066158  0.4283753004246619  0.1986815714515302  1.0000
  C   C4        1.0  0.17442005730717372  0.5716240966429494  0.801318536765933  1.0000
  C   C5        1.0  0.036638588531857946  0.34086121048801477  0.20439637300086838  1.0000
  C   C6        1.0  0.9633645674502559  0.6591372631044121  0.7956022047766069  1.0000
  C   C7        1.0  0.17579000980661166  0.3184851187298036  0.10051411914960079  1.0000
  C   C8        1.0  0.8242114194669626  0.681518014219023  0.899481299680019  1.0000
  C   C9        1.0  0.2725988978997762  0.1298531608103346  0.615113318793405  1.0000
  C   C10       1.0  0.7274023717003432  0.870142494409194  0.38488778119524614  1.0000
  C   C11       1.0  0.27241253844024266  0.19156173983108005  0.7072835893061435  1.0000
  C   C12       1.0  0.727586582339228  0.8084357608546922  0.2927183366417338  1.0000
  C   C13       1.0  0.3101500504342384  0.12276586374911598  0.7983877109263061  1.0000
  C   C14       1.0  0.6898469201913996  0.8772334854015043  0.20161426875595367  1.0000
  C   C15       1.0  0.3526123298367239  0.9930099942690376  0.7972917685757821  1.0000
  C   C16       1.0  0.6473805989203286  0.0069883969679481  0.20270969815266676  1.0000
  C   C17       1.0  0.3559212742808666  0.9314647558239528  0.7051224999962711  1.0000
  C   C18       1.0  0.6440749232915691  0.06853272390192439  0.294879589459164  1.0000
  C   C19       1.0  0.3135497540295161  1.907425662039975e-05  0.6136068292931609  1.0000
  C   C20       1.0  0.6864574491539484  0.9999803452550183  0.38639535033749434  1.0000
  C   C21       1.0  0.9802600617044701  0.31684343805248005  0.536631304868159  1.0000
  C   C22       1.0  0.019740175070175805  0.6831550055842397  0.4633697530913992  1.0000
  C   C23       1.0  0.7674138234665263  0.21710552193247418  0.704698658740888  1.0000
  C   C24       1.0  0.23258495170459537  0.7828929112243014  0.2953024809724454  1.0000
  C   C25       1.0  0.7109801356770332  0.32002366977114594  0.7693832864211739  1.0000
  C   C26       1.0  0.28902302163827187  0.6799748008226771  0.23061606358113806  1.0000
  C   C27       1.0  0.7038694078016972  0.30113943301622464  0.8768219708795042  1.0000
  C   C28       1.0  0.29613168519585287  0.69886461141337  0.12317806728947284  1.0000
  C   C29       1.0  0.7519811738250368  0.18083041263619037  0.9194125537693336  1.0000
  C   C30       1.0  0.24801699463228738  0.8191736138321133  0.0805868756823571  1.0000
  C   C31       1.0  0.8062547265447294  0.0788141255687478  0.8544947742305381  1.0000
  C   C32       1.0  0.1937452504576457  0.9211889759098992  0.14550613192676554  1.0000
  C   C33       1.0  0.813775869081546  0.0963685850355205  0.7468529095305596  1.0000
  C   C34       1.0  0.18622402475112662  0.9036307850749948  0.25314890664414236  1.0000
  S   S1        1.0  0.22140873370271652  0.21524816194704494  0.4974076993571756  1.0000
  S   S2        1.0  0.7785926177339134  0.7847512276392264  0.502591718389219  1.0000
  S   S3        1.0  0.7772721693606783  0.23533780545162133  0.5671560852777944  1.0000
  S   S4        1.0  0.22272660314407491  0.7646606337023555  0.43284350998585086  1.0000
  O   O1        1.0  0.561927715743856  0.38895775007683386  0.32449775779333107  1.0000
  O   O2        1.0  0.43808069060404614  0.611046334758079  0.6755049605061314  1.0000
  O   O3        1.0  0.7637669486261347  0.5139391340177751  0.3667421007355003  1.0000
  O   O4        1.0  0.23623465631916932  0.48607144067709374  0.6332569036332101  1.0000
  F   F1        1.0  0.8520620747848681  0.5420010596600021  0.15916787119004278  1.0000
  F   F2        1.0  0.14794288840911207  0.4579964919413726  0.8408314110681869  1.0000
  F   F3        1.0  0.7261310126435845  0.3796694564819703  0.12979695320039747  1.0000
  F   F4        1.0  0.2738728358884117  0.6203271491698457  0.8702039692710029  1.0000
  F   F5        1.0  0.008738123158892093  0.22719764962319286  0.24246624272046796  1.0000
  F   F6        1.0  0.9912614143999295  0.772802676947151  0.7575286094209517  1.0000
  F   F7        1.0  0.14012488957750685  0.3875876622072241  0.27192779575292286  1.0000
  F   F8        1.0  0.8598818768287658  0.6124089763989032  0.7280698743115436  1.0000
  F   F9        1.0  0.21913376357768757  0.4256671096550162  0.06079492019267009  1.0000
  F   F10       1.0  0.7808778190835709  0.5743323532908844  0.939203925277283  1.0000
  F   F11       1.0  0.35014461774032674  0.2389594643725559  0.11919846074658837  1.0000
  F   F12       1.0  0.6498552600940785  0.7610399417212079  0.8807940887300063  1.0000
  F   F13       1.0  0.0896474881432994  0.2672900637558016  0.029158035447423486  1.0000
  F   F14       1.0  0.91035040854306  0.7327186475418725  0.9708342921784233  1.0000
