data_image0
_chemical_formula_structural       Mn8H32C8Se8N8
_chemical_formula_sum              "Mn8 H32 C8 Se8 N8"
_cell_length_a       6.5800257150129715
_cell_length_b       6.6234973280446034
_cell_length_c       17.47625266412502
_cell_angle_alpha    90.00041909400035
_cell_angle_beta     90.00010965295219
_cell_angle_gamma    90.00010488142901

_space_group_name_H-M_alt    "P 1"
_space_group_IT_number       1

loop_
  _space_group_symop_operation_xyz
  'x, y, z'

loop_
  _atom_site_type_symbol
  _atom_site_label
  _atom_site_symmetry_multiplicity
  _atom_site_fract_x
  _atom_site_fract_y
  _atom_site_fract_z
  _atom_site_occupancy
  Mn  Mn1       1.0  0.8170186987283969  0.4027661979356835  0.7010100697530746  1.0000
  Mn  Mn2       1.0  0.8170146677311083  0.9027643574863901  0.7989882654126317  1.0000
  Mn  Mn3       1.0  0.6829795565288065  0.40276713732293945  0.20101205789477208  1.0000
  Mn  Mn4       1.0  0.3170157889366366  0.09723081923218758  0.7010110384735881  1.0000
  Mn  Mn5       1.0  0.1829832539983727  0.597232937709009  0.2989889334658998  1.0000
  Mn  Mn6       1.0  0.18298120599037304  0.09723326837111297  0.2010101655951573  1.0000
  Mn  Mn7       1.0  0.3170193566951767  0.5972304885599371  0.7989886619352616  1.0000
  Mn  Mn8       1.0  0.6829800847845675  0.9027652968888661  0.2989913979675123  1.0000
  H   H1        1.0  0.9377343064339243  0.7063512017763713  0.6070899658947013  1.0000
  H   H2        1.0  0.937730855611065  0.20634026333088676  0.892909723295702  1.0000
  H   H3        1.0  0.5622629770610245  0.7063474103073658  0.1070929348997112  1.0000
  H   H4        1.0  0.43773634747904566  0.7936551149470715  0.6070914607494657  1.0000
  H   H5        1.0  0.0622600475517103  0.2936615218439371  0.3929084651322725  1.0000
  H   H6        1.0  0.06226653786166741  0.7936573625392994  0.10708985212320239  1.0000
  H   H7        1.0  0.43773593617170553  0.293657764497496  0.8929117903757771  1.0000
  H   H8        1.0  0.5622640854961887  0.20634251094848818  0.3929104034916975  1.0000
  H   H9        1.0  0.11953673253269409  0.5383623547250591  0.6198670976129961  1.0000
  H   H10       1.0  0.11953935293677628  0.0383617297880789  0.8801316053690513  1.0000
  H   H11       1.0  0.3804565331368579  0.53836664333906  0.11986706447483192  1.0000
  H   H12       1.0  0.6195427991891833  0.961636136806845  0.6198685754022293  1.0000
  H   H13       1.0  0.8804545819451236  0.4616443297870844  0.3801313334038312  1.0000
  H   H14       1.0  0.8804534812774135  0.9616298569783835  0.11986854224372931  1.0000
  H   H15       1.0  0.6195454195944239  0.46163702163485704  0.8801319387502105  1.0000
  H   H16       1.0  0.38045155478493353  0.0383645086193312  0.3801315722237177  1.0000
  H   H17       1.0  0.7689718089261532  0.4946870369039331  0.5148089155443571  1.0000
  H   H18       1.0  0.7689587728959355  0.9946828723157495  0.985189600740213  1.0000
  H   H19       1.0  0.731044753145355  0.4947122129387224  0.014810396617519896  1.0000
  H   H20       1.0  0.268958077610975  0.0052971264067594006  0.5148096380205942  1.0000
  H   H21       1.0  0.23103774254943943  0.505306059652895  0.48519123208176745  1.0000
  H   H22       1.0  0.2310416600670209  0.005304185087872799  0.014806541436307398  1.0000
  H   H23       1.0  0.26896479836271675  0.5053125889511989  0.9851926120763109  1.0000
  H   H24       1.0  0.7310438751141747  0.9946989897307857  0.4851939428347194  1.0000
  H   H25       1.0  0.9410469345799726  0.2975362709699283  0.5371659637071671  1.0000
  H   H26       1.0  0.9410430034418269  0.7975437385434033  0.9628322576291098  1.0000
  H   H27       1.0  0.5589692480663757  0.29755361082163734  0.0371654950351967  1.0000
  H   H28       1.0  0.441035116058174  0.20244862568316077  0.5371672142749588  1.0000
  H   H29       1.0  0.058958057642918504  0.7024568255830913  0.46283418391586645  1.0000
  H   H30       1.0  0.05894983077450181  0.2024508677473307  0.037165028962476795  1.0000
  H   H31       1.0  0.44104790218408846  0.7024606225883974  0.962832363804189  1.0000
  H   H32       1.0  0.5589577181638886  0.7975505099767587  0.4628340777580249  1.0000
  C   C1        1.0  0.9274909191711628  0.4625532498582673  0.5310166878781429  1.0000
  C   C2        1.0  0.927494590515863  0.9625412130413478  0.9689825292926741  1.0000
  C   C3        1.0  0.5725103911825258  0.46255551454846255  0.031014520925808094  1.0000
  C   C4        1.0  0.42749396919172983  0.0374450894548275  0.5310157798433507  1.0000
  C   C5        1.0  0.07250343480712469  0.5374519248857155  0.4689823153437657  1.0000
  C   C6        1.0  0.07250584245097261  0.03744886394363789  0.031016473913133797  1.0000
  C   C7        1.0  0.4274976405576751  0.5374541895133262  0.9689821934912359  1.0000
  C   C8        1.0  0.5725079835306985  0.9625495168663464  0.46898379557460146  1.0000
  Se  Se1       1.0  0.9428673866927398  0.04552425135214118  0.674154377012087  1.0000
  Se  Se2       1.0  0.9428694510651141  0.5455214369607048  0.8258460327650068  1.0000
  Se  Se3       1.0  0.5571331795057545  0.04553252949879289  0.17415447805618806  1.0000
  Se  Se4       1.0  0.442866708855  0.4544754596543753  0.674154013828044  1.0000
  Se  Se5       1.0  0.05713000678618842  0.9544794136293859  0.3258457706199565  1.0000
  Se  Se6       1.0  0.05713250166199659  0.45447769869539895  0.1741541148640593  1.0000
  Se  Se7       1.0  0.4428672534811682  0.9544771745966114  0.825846241791055  1.0000
  Se  Se8       1.0  0.5571276451183776  0.545522166293189  0.3258535724594793  1.0000
  N   N1        1.0  0.9670227930484998  0.5533384003661226  0.6064357504332776  1.0000
  N   N2        1.0  0.9670056648875589  0.05334861183915509  0.8935647130038902  1.0000
  N   N3        1.0  0.5329924220322865  0.5533572066261099  0.10643524657174909  1.0000
  N   N4        1.0  0.4670099416062357  0.9466422859721533  0.6064353662844864  1.0000
  N   N5        1.0  0.0329867584224033  0.44665016685576825  0.3935638249817329  1.0000
  N   N6        1.0  0.0329917285810168  0.946644484713225  0.10643600681904532  1.0000
  N   N7        1.0  0.4670156097082625  0.44665249744709  0.8935626122553941  1.0000
  N   N8        1.0  0.5329859321124175  0.05335232033824162  0.3935636369243056  1.0000
