data_image0
_chemical_formula_structural       Er4H36C40N16O40
_chemical_formula_sum              "Er4 H36 C40 N16 O40"
_cell_length_a       9.212146415000264
_cell_length_b       10.849450386931835
_cell_length_c       14.147783841965737
_cell_angle_alpha    104.7813456309837
_cell_angle_beta     90.00002342019712
_cell_angle_gamma    89.99998046074171

_space_group_name_H-M_alt    "P 1"
_space_group_IT_number       1

loop_
  _space_group_symop_operation_xyz
  'x, y, z'

loop_
  _atom_site_type_symbol
  _atom_site_label
  _atom_site_symmetry_multiplicity
  _atom_site_fract_x
  _atom_site_fract_y
  _atom_site_fract_z
  _atom_site_occupancy
  Er  Er1       1.0  0.1285019645562357  0.9575544933590123  0.23509752296435238  1.0000
  Er  Er2       1.0  0.37149879234781485  0.4575551090596548  0.7350967290775969  1.0000
  Er  Er3       1.0  0.8714985364133555  0.04244386612748491  0.7649032366815902  1.0000
  Er  Er4       1.0  0.6285017086212862  0.5424451559724233  0.264903695146252  1.0000
  H   H1        1.0  0.397086728024135  0.22164269910699372  0.5176091233538358  1.0000
  H   H2        1.0  0.10291290208671461  0.72164018146826  0.01760883286132047  1.0000
  H   H3        1.0  0.6029126874212737  0.7783585182191431  0.48239077965308746  1.0000
  H   H4        1.0  0.8970875988818108  0.2783658040313385  0.9823934131422333  1.0000
  H   H5        1.0  0.944112054675216  0.9274820928798917  0.06524872968915217  1.0000
  H   H6        1.0  0.5558846554476631  0.4274837328252376  0.565250171360347  1.0000
  H   H7        1.0  0.0558841042004588  0.0725153104823519  0.9347497231270977  1.0000
  H   H8        1.0  0.4441147599982287  0.5725155789553186  0.434750067068677  1.0000
  H   H9        1.0  0.91642597207764  0.07176833511271502  0.1272773981766733  1.0000
  H   H10       1.0  0.5835730899301694  0.5717671281093645  0.6272775910652157  1.0000
  H   H11       1.0  0.0835766999383765  0.9282319308768194  0.8727237330589189  1.0000
  H   H12       1.0  0.41642632551629083  0.4282312323349444  0.3727238755921077  1.0000
  H   H13       1.0  0.15844961537377603  0.11065544822325532  0.43885069234493557  1.0000
  H   H14       1.0  0.3415503216598665  0.6106570443368327  0.9388507938621726  1.0000
  H   H15       1.0  0.8415498000718955  0.889343862599603  0.5611488390725867  1.0000
  H   H16       1.0  0.6584490937858903  0.38934322069535926  0.06114963036154822  1.0000
  H   H17       1.0  0.3010917343572785  0.02522015162805501  0.4136801853553038  1.0000
  H   H18       1.0  0.1989071356117336  0.5252227327381718  0.9136811474673079  1.0000
  H   H19       1.0  0.6989065955653119  0.9747772526916452  0.5863189744726967  1.0000
  H   H20       1.0  0.8010922798341583  0.47477657904238413  0.08631909096171601  1.0000
  H   H21       1.0  0.4050739369512613  0.19455711712653567  0.2696883169746727  1.0000
  H   H22       1.0  0.09492911767868151  0.6945540021270136  0.7696888478492667  1.0000
  H   H23       1.0  0.5949276495413186  0.8054421946537857  0.7303119214546001  1.0000
  H   H24       1.0  0.905073554337953  0.3054434050653044  0.2303124330137223  1.0000
  H   H25       1.0  0.8955514287775088  0.18534372930299983  0.42677767106607684  1.0000
  H   H26       1.0  0.6044488600394119  0.6853415635847355  0.9267769758624309  1.0000
  H   H27       1.0  0.10444907219145701  0.8146574889807212  0.573222938952469  1.0000
  H   H28       1.0  0.3955462133130965  0.3146577481962894  0.07322326256610273  1.0000
  H   H29       1.0  0.6604571983601062  0.9410689168233619  0.050380315397561035  1.0000
  H   H30       1.0  0.8395438391586935  0.44106763674850674  0.5503819707513316  1.0000
  H   H31       1.0  0.3395433026078507  0.05893325088121772  0.9496176523696886  1.0000
  H   H32       1.0  0.16045774733397167  0.5589326292411414  0.44961916048414  1.0000
  H   H33       1.0  0.5583974762840498  0.9109071216803032  0.34353018926918116  1.0000
  H   H34       1.0  0.9416026704892037  0.41090486536820975  0.8435309748636894  1.0000
  H   H35       1.0  0.4416030246843903  0.08909314047869542  0.6564681139201624  1.0000
  H   H36       1.0  0.058397830480160506  0.5890982622918629  0.15647212777876263  1.0000
  C   C1        1.0  0.35897808335223397  0.8177832855640901  0.05891879648078203  1.0000
  C   C2        1.0  0.1410237051274308  0.3177820464214278  0.5589189929818232  1.0000
  C   C3        1.0  0.6410202465685941  0.1822188802253351  0.9410777572632226  1.0000
  C   C4        1.0  0.8589800524110985  0.682216308276246  0.44107823160698695  1.0000
  C   C5        1.0  0.439062562405212  0.9321068343718223  0.11362959801397918  1.0000
  C   C6        1.0  0.060939214483426  0.43210275659001246  0.6136320470923166  1.0000
  C   C7        1.0  0.560936853038605  0.06789628371143412  0.8863664345133413  1.0000
  C   C8        1.0  0.9390623720099927  0.5678936973507761  0.3863690479758546  1.0000
  C   C9        1.0  0.5757863847489021  0.983795322788261  0.10144116370480565  1.0000
  C   C10       1.0  0.9242168385666147  0.4837921198503994  0.601443880612713  1.0000
  C   C11       1.0  0.42421303069535554  0.0162077972103845  0.8985562828455187  1.0000
  C   C12       1.0  0.075785833450368  0.5162043350479666  0.3985579214670807  1.0000
  C   C13       1.0  0.5754033913778898  0.1041504781633336  0.1674683627293092  1.0000
  C   C14       1.0  0.9245978537862314  0.6041463406734737  0.6674701962779181  1.0000
  C   C15       1.0  0.4245981951139868  0.8958507382048709  0.8325308332663608  1.0000
  C   C16       1.0  0.07540373270727942  0.3958510674766487  0.33253179159645185  1.0000
  C   C17       1.0  0.6762246130722146  0.21439749264467878  0.18800199467280265  1.0000
  C   C18       1.0  0.8237755153014845  0.7143943253788055  0.6880004561911264  1.0000
  C   C19       1.0  0.32377697342054296  0.7856037275543101  0.8120000293688675  1.0000
  C   C20       1.0  0.17622498566867506  0.2856030827714378  0.3120015316831227  1.0000
  C   C21       1.0  0.8384190695820736  0.7943843738306454  0.23983970691880774  1.0000
  C   C22       1.0  0.6615756315166125  0.2943831331244837  0.7398420290961665  1.0000
  C   C23       1.0  0.16158034586284492  0.20561397990980623  0.7601568106580174  1.0000
  C   C24       1.0  0.33842378393104167  0.7056114171863473  0.26016081541686026  1.0000
  C   C25       1.0  0.7921399484219976  0.918510040237621  0.3054722953743578  1.0000
  C   C26       1.0  0.7078601715899496  0.41850973896310983  0.805471985751744  1.0000
  C   C27       1.0  0.2078616380694385  0.08149117421520201  0.6945254865983088  1.0000
  C   C28       1.0  0.29213924385668827  0.5814905298998597  0.1945312665179841  1.0000
  C   C29       1.0  0.6596702829874275  0.9634153511749517  0.3504536172974894  1.0000
  C   C30       1.0  0.8403287615904134  0.4634150222667231  0.8504540446004327  1.0000
  C   C31       1.0  0.3403291324577112  0.03658300352319092  0.6495436072908376  1.0000
  C   C32       1.0  0.15966956833274537  0.5365861998480028  0.1495493934638716  1.0000
  C   C33       1.0  0.6891055257531491  0.0877315386284607  0.4040882375774615  1.0000
  C   C34       1.0  0.8108947879366823  0.5877283779734913  0.9040895242330435  1.0000
  C   C35       1.0  0.3108938896915063  0.912268721615263  0.5959086515887648  1.0000
  C   C36       1.0  0.1891035419862561  0.41227284318353713  0.09591320681975903  1.0000
  C   C37       1.0  0.597626300605576  0.18950894072824553  0.4637824228116826  1.0000
  C   C38       1.0  0.9023729240890647  0.6895095742932683  0.963785180315206  1.0000
  C   C39       1.0  0.4023731148395626  0.8104894139698969  0.5362148017766372  1.0000
  C   C40       1.0  0.097621063738373  0.3105068988904522  0.036220523452314524  1.0000
  N   N1        1.0  0.3635537639713107  0.0142093687708922  0.1844609889811082  1.0000
  N   N2        1.0  0.1364471385726915  0.5142062467255004  0.6844629432545092  1.0000
  N   N3        1.0  0.6364467369970869  0.9857928008490691  0.8155383928091453  1.0000
  N   N4        1.0  0.8635544479208194  0.48579116142462214  0.3155390446198609  1.0000
  N   N5        1.0  0.44641392122343865  0.11650057368620993  0.2154239557332431  1.0000
  N   N6        1.0  0.0535858742122599  0.6164965172310773  0.7154264125119097  1.0000
  N   N7        1.0  0.5535865797452217  0.8834996894304794  0.7845750544676093  1.0000
  N   N8        1.0  0.9464157122819475  0.3834989863311622  0.2845766177960556  1.0000
  N   N9        1.0  0.8957815648027677  0.0095780857858045  0.3303567247683504  1.0000
  N   N10       1.0  0.6042187341655705  0.509578779872129  0.8303565868968334  1.0000
  N   N11       1.0  0.1042178506424634  0.990421223121665  0.6696413926261754  1.0000
  N   N12       1.0  0.3957806812811953  0.4904205357391974  0.1696464795781907  1.0000
  N   N13       1.0  0.8321829211721976  0.11043746271466405  0.38913830071148675  1.0000
  N   N14       1.0  0.6678162886000507  0.6104362384864289  0.8891392196352327  1.0000
  N   N15       1.0  0.16781649427254314  0.8895637517384004  0.6108594812609384  1.0000
  N   N16       1.0  0.332179870276768  0.38956403133457956  0.1108647396456206  1.0000
  O   O1        1.0  0.2232518504397589  0.814238570536752  0.08104631749525744  1.0000
  O   O2        1.0  0.27674995324842666  0.3142363459749689  0.5810442378166768  1.0000
  O   O3        1.0  0.7767475650049819  0.18576264391630565  0.9189514644771675  1.0000
  O   O4        1.0  0.7232527187657426  0.6857629581436839  0.4189503445207166  1.0000
  O   O5        1.0  0.4248609744257763  0.734726218424953  0.9944481990923605  1.0000
  O   O6        1.0  0.0751367766255697  0.23472654488081462  0.4944470363281397  1.0000
  O   O7        1.0  0.5751373554951371  0.265276901573806  0.005549247457835817  1.0000
  O   O8        1.0  0.9248648098662643  0.7652718098170936  0.5055501882604219  1.0000
  O   O9        1.0  0.6222176489732404  0.3203601569172179  0.2348037577323794  1.0000
  O   O10       1.0  0.8777813806965185  0.8203560228278733  0.7348006316286799  1.0000
  O   O11       1.0  0.3777839375185081  0.6796420127026297  0.7651956240579948  1.0000
  O   O12       1.0  0.12221694922695293  0.17964138532260426  0.2652013562453206  1.0000
  O   O13       1.0  0.8069520129853345  0.1968350925066531  0.15878553861016087  1.0000
  O   O14       1.0  0.6930491897201493  0.6968319524984568  0.6587832635963551  1.0000
  O   O15       1.0  0.19305065903081697  0.8031642202312385  0.8412154068307274  1.0000
  O   O16       1.0  0.306953482297054  0.3031645033575998  0.3412192454949334  1.0000
  O   O17       1.0  0.9665173273872442  0.7912831435563563  0.20525184344937492  1.0000
  O   O18       1.0  0.5334795244394357  0.2912819333710672  0.7052562577344474  1.0000
  O   O19       1.0  0.033479917010900806  0.20871425597499646  0.7947437813210028  1.0000
  O   O20       1.0  0.46652206205455127  0.7087135692334672  0.2947460655620234  1.0000
  O   O21       1.0  0.7544885890927162  0.6995050719600685  0.2225557973890915  1.0000
  O   O22       1.0  0.7455050536323854  0.19950381601201173  0.7225602595539441  1.0000
  O   O23       1.0  0.24550756978172925  0.3004932798653428  0.7774393061643607  1.0000
  O   O24       1.0  0.2544911052454921  0.8004935969271685  0.2774452633773166  1.0000
  O   O25       1.0  0.46397667812797044  0.15126346202541197  0.4773724180973318  1.0000
  O   O26       1.0  0.0360265232566093  0.6512603578237305  0.9773715216475833  1.0000
  O   O27       1.0  0.5360238228404768  0.8487368001335797  0.5226258850920189  1.0000
  O   O28       1.0  0.9639761487582136  0.34874371829928213  0.02262823173231251  1.0000
  O   O29       1.0  0.6452492833532874  0.2988123722763376  0.4954851579960291  1.0000
  O   O30       1.0  0.8547553450335528  0.7988053958525113  0.995490660457385  1.0000
  O   O31       1.0  0.3547544741841406  0.7011859776328677  0.5045085315352793  1.0000
  O   O32       1.0  0.1452527546003353  0.2011881983326589  0.004509877227420107  1.0000
  O   O33       1.0  0.9882897987382719  0.00044400267041310007  0.1139830122947458  1.0000
  O   O34       1.0  0.5117060269201161  0.500444716723685  0.6139828535325975  1.0000
  O   O35       1.0  0.011706360138376202  0.999554358731935  0.88601916137371  1.0000
  O   O36       1.0  0.4882923030025593  0.499553641805349  0.3860171991016016  1.0000
  O   O37       1.0  0.19827638529720562  0.026982472480924002  0.3976557161157714  1.0000
  O   O38       1.0  0.30172030293154956  0.5269859808210453  0.897654059193897  1.0000
  O   O39       1.0  0.8017208591011951  0.9730177896784229  0.6023425870732098  1.0000
  O   O40       1.0  0.6982780269905079  0.4730152365052122  0.10234584381291265  1.0000
