data_image0
_chemical_formula_structural       Mn2H38C40N4O12
_chemical_formula_sum              "Mn2 H38 C40 N4 O12"
_cell_length_a       9.677079088428815
_cell_length_b       9.737598505383087
_cell_length_c       11.451059864036711
_cell_angle_alpha    70.05463871315659
_cell_angle_beta     65.39885599645473
_cell_angle_gamma    71.72075201517605

_space_group_name_H-M_alt    "P 1"
_space_group_IT_number       1

loop_
  _space_group_symop_operation_xyz
  'x, y, z'

loop_
  _atom_site_type_symbol
  _atom_site_label
  _atom_site_symmetry_multiplicity
  _atom_site_fract_x
  _atom_site_fract_y
  _atom_site_fract_z
  _atom_site_occupancy
  Mn  Mn1       1.0  0.11267952016316939  0.31617444117378574  0.3779606268238779  1.0000
  Mn  Mn2       1.0  0.8738270588242047  0.6784957485949762  0.6334820166558328  1.0000
  H   H1        1.0  0.2959465090619062  0.24162530031051688  0.09906017178754206  1.0000
  H   H2        1.0  0.7083897335568565  0.7393326602109482  0.9032721397963497  1.0000
  H   H3        1.0  0.4112653164202129  0.13760053686451806  0.4330786604181327  1.0000
  H   H4        1.0  0.6005113550575913  0.8492316323479444  0.5638358059644942  1.0000
  H   H5        1.0  0.6776354276713691  0.0032921742025920006  0.324039383750339  1.0000
  H   H6        1.0  0.34030768226562474  0.9938269976547359  0.6671085761855194  1.0000
  H   H7        1.0  0.5562267450233378  0.11098887858599227  0.9757488739235141  1.0000
  H   H8        1.0  0.4564055401639777  0.8816946044845224  0.0185424200617136  1.0000
  H   H9        1.0  0.7985958673268669  0.9495547476531742  0.9788258492470802  1.0000
  H   H10       1.0  0.21872058190324853  0.0563473062329152  0.01069996268467581  1.0000
  H   H11       1.0  0.8222155840127597  0.855740069849652  0.1335408004821232  1.0000
  H   H12       1.0  0.19963402807506722  0.15162390035926873  0.8543453657660294  1.0000
  H   H13       1.0  0.9350336882139487  0.0531673912206969  0.12609466172870043  1.0000
  H   H14       1.0  0.07703332511269417  0.9633801730106698  0.8612048316227643  1.0000
  H   H15       1.0  0.9162696023101876  0.324404371119968  0.0746662208056391  1.0000
  H   H16       1.0  0.0901959678977278  0.6983079894865512  0.90648023950299  1.0000
  H   H17       1.0  0.8888252198660354  0.5724727518116167  0.9166597169905725  1.0000
  H   H18       1.0  0.10672535852762623  0.44638918023128576  0.06399966749022915  1.0000
  H   H19       1.0  0.8466164840648747  0.38738164402005987  0.658316926674196  1.0000
  H   H20       1.0  0.14029145260028036  0.6154078469077574  0.33572617363264357  1.0000
  H   H21       1.0  0.8668799888380079  0.1402664648566656  0.8037456143570975  1.0000
  H   H22       1.0  0.13242476055008717  0.8679772232148011  0.19063232532563024  1.0000
  H   H23       1.0  0.187396586113735  0.5626255607683177  0.744780025528989  1.0000
  H   H24       1.0  0.8168402154987933  0.44563435292948134  0.267242236605888  1.0000
  H   H25       1.0  0.3777892010988283  0.47667631321853327  0.8631945101974307  1.0000
  H   H26       1.0  0.6343992453598091  0.5250593592038726  0.14266272482823436  1.0000
  H   H27       1.0  0.6133979560793179  0.28339898252263407  0.79523917437195  1.0000
  H   H28       1.0  0.38967755947533095  0.7110215482918605  0.20915831810253835  1.0000
  H   H29       1.0  0.48219424204583566  0.2768646606178535  0.48325155741783027  1.0000
  H   H30       1.0  0.5044008421349276  0.7308069267216836  0.5253826328236215  1.0000
  H   H31       1.0  0.97029754116069  0.11722532644158432  0.5946693489020304  1.0000
  H   H32       1.0  0.01963249174250592  0.8675000882679668  0.42333739387937896  1.0000
  H   H33       1.0  0.14174439216473192  0.026071848292126297  0.541663135129447  1.0000
  H   H34       1.0  0.8462578027440985  0.9584516448609647  0.4774350312284668  1.0000
  H   H35       1.0  0.9197987997235091  0.17595342203732406  0.3543493246106095  1.0000
  H   H36       1.0  0.06352221692939965  0.8081273626212776  0.6436043739315949  1.0000
  H   H37       1.0  0.09099399959555401  0.08668338535895971  0.3070675839973305  1.0000
  H   H38       1.0  0.8918366703189946  0.898811605141617  0.6952545398965738  1.0000
  C   C1        1.0  0.3841947291207505  0.188253646910141  0.14523053152654333  1.0000
  C   C2        1.0  0.6239124993246747  0.7956087362853596  0.8539259146639963  1.0000
  C   C3        1.0  0.4492101023026933  0.1296813153217613  0.3313364815052893  1.0000
  C   C4        1.0  0.5620502073003665  0.8573543012865199  0.6652281423015082  1.0000
  C   C5        1.0  0.5969309418507294  0.0549875855068294  0.2699801947057097  1.0000
  C   C6        1.0  0.4179407536869635  0.9389284819308585  0.7238468047353805  1.0000
  C   C7        1.0  0.529284573137794  0.11533430837508972  0.07693054138739791  1.0000
  C   C8        1.0  0.4819605339713463  0.8766906963025889  0.917801340622617  1.0000
  C   C9        1.0  0.6392316513638221  0.04630261947900749  0.13957683068230153  1.0000
  C   C10       1.0  0.3744753677848607  0.9519236105187685  0.8533581693273006  1.0000
  C   C11       1.0  0.7969798730324914  0.9666892971624957  0.06954964202726183  1.0000
  C   C12       1.0  0.2196524399744888  0.040193092911280794  0.9197758293521684  1.0000
  C   C13       1.0  0.9267314222630106  0.0507039441837378  0.033763585642645935  1.0000
  C   C14       1.0  0.08493113107963524  0.9637193730974758  0.9543516895440618  1.0000
  C   C15       1.0  0.8958461552595266  0.20797271767474973  0.953367824075542  1.0000
  C   C16       1.0  0.1095317629625114  0.8056708990198869  0.035137611849265254  1.0000
  C   C17       1.0  0.8984691163975996  0.3344782221807634  0.9837519465591027  1.0000
  C   C18       1.0  0.10433607487016158  0.683468315355377  4.608489505386632e-05  1.0000
  C   C19       1.0  0.8813868152761087  0.47413487684328726  0.896262052613622  1.0000
  C   C20       1.0  0.11309681049560542  0.5432250556477315  0.08772782233863545  1.0000
  C   C21       1.0  0.8567226135622409  0.3721502714434806  0.7528470712192145  1.0000
  C   C22       1.0  0.13248867711314458  0.6368672853700729  0.23876884198201506  1.0000
  C   C23       1.0  0.8719892083905663  0.23147274358892395  0.8353016615144851  1.0000
  C   C24       1.0  0.12614052425291084  0.7791789925306529  0.15674253681738293  1.0000
  C   C25       1.0  0.20465463105198722  0.46794330597401756  0.5399646880583404  1.0000
  C   C26       1.0  0.788016503498412  0.5399546603264226  0.4728439016827152  1.0000
  C   C27       1.0  0.3195238831182365  0.4211884665058818  0.6096709488633394  1.0000
  C   C28       1.0  0.6775291170796863  0.5891022138188687  0.3999544519365655  1.0000
  C   C29       1.0  0.291919627794222  0.4790108417708794  0.7158326717167609  1.0000
  C   C30       1.0  0.7108102447957948  0.5286943605829464  0.2934584332215591  1.0000
  C   C31       1.0  0.3978456875014303  0.4301266840500233  0.7819897365731804  1.0000
  C   C32       1.0  0.6084253909194218  0.5732456531404111  0.22443581195009438  1.0000
  C   C33       1.0  0.5307354164501915  0.3222801314931445  0.7438025830446617  1.0000
  C   C34       1.0  0.4710863854252453  0.6770094308292585  0.26139154016600213  1.0000
  C   C35       1.0  0.5618462070988599  0.2657228140955965  0.6362549634312058  1.0000
  C   C36       1.0  0.4337528815597624  0.7340315875464185  0.3702708739969295  1.0000
  C   C37       1.0  0.45633603410647094  0.31714440561653123  0.5690929078914876  1.0000
  C   C38       1.0  0.5372991727318137  0.6897431145148403  0.43852240565337997  1.0000
  C   C39       1.0  0.7064710332963815  0.15169210269397132  0.593238711440321  1.0000
  C   C40       1.0  0.2818022203211827  0.8375348727054827  0.41702388034128995  1.0000
  N   N1        1.0  0.3436232393017492  0.19587437401467866  0.2706950372843905  1.0000
  N   N2        1.0  0.6664630734226336  0.7841696241974888  0.7280683363259823  1.0000
  N   N3        1.0  0.8613468780608716  0.49558631153688276  0.7800825780089368  1.0000
  N   N4        1.0  0.12641928584506704  0.5190493189563694  0.20594363745430402  1.0000
  O   O1        1.0  0.2248119042915064  0.3927281610943041  0.4608572899679331  1.0000
  O   O2        1.0  0.7755201733360622  0.6224936062935953  0.5446305828005362  1.0000
  O   O3        1.0  0.8855177650103626  0.4167769657631836  0.4629089680537814  1.0000
  O   O4        1.0  0.09678929984451665  0.5827564267043853  0.5615794409597541  1.0000
  O   O5        1.0  0.7447890619850598  0.12611024858802716  0.48034223894651246  1.0000
  O   O6        1.0  0.23852739861379751  0.8577040117453548  0.5329963061151161  1.0000
  O   O7        1.0  0.7827488526958676  0.08513752741182401  0.6723375118691661  1.0000
  O   O8        1.0  0.2031327164120711  0.898849310444639  0.3397777026699628  1.0000
  O   O9        1.0  0.0804569516497082  0.12818921897804358  0.5538671814393225  1.0000
  O   O10       1.0  0.9090873252637623  0.8560336100270192  0.46579769357001033  1.0000
  O   O11       1.0  0.02557115597664251  0.18786201267512578  0.2905180251285557  1.0000
  O   O12       1.0  0.9568144507562055  0.7956660993710472  0.7078798983085121  1.0000
