data_image0
_chemical_formula_structural       Zn2H20C33N2O12
_chemical_formula_sum              "Zn2 H20 C33 N2 O12"
_cell_length_a       9.741384737954474
_cell_length_b       11.041223319989017
_cell_length_c       16.05372844492673
_cell_angle_alpha    93.17816524847663
_cell_angle_beta     90.44900699217344
_cell_angle_gamma    91.28362236256356

_space_group_name_H-M_alt    "P 1"
_space_group_IT_number       1

loop_
  _space_group_symop_operation_xyz
  'x, y, z'

loop_
  _atom_site_type_symbol
  _atom_site_label
  _atom_site_symmetry_multiplicity
  _atom_site_fract_x
  _atom_site_fract_y
  _atom_site_fract_z
  _atom_site_occupancy
  Zn  Zn1       1.0  0.36034304855987637  0.4907768462716717  0.5010506999396185  1.0000
  Zn  Zn2       1.0  0.6467421228656818  0.49723357903359056  0.5017914184679242  1.0000
  H   H1        1.0  0.6110954050924491  0.7086172208061118  0.9775632889620738  1.0000
  H   H2        1.0  0.18317873061928938  0.10831425465026001  0.4540076436754319  1.0000
  H   H3        1.0  0.181445393574073  0.8764071705929342  0.5525374158924096  1.0000
  H   H4        1.0  0.1776650876757628  0.8811510807186594  0.4410578527957583  1.0000
  H   H5        1.0  0.8684124600674253  0.4081994675846517  0.3834404364597148  1.0000
  H   H6        1.0  0.1277345358550903  0.4010943317866165  0.384323644261606  1.0000
  H   H7        1.0  0.1358976529160216  0.5508807905053034  0.6975853350089807  1.0000
  H   H8        1.0  0.1497817039561653  0.6921505873175208  0.6495953268308554  1.0000
  H   H9        1.0  0.8777061381650455  0.5623948334442589  0.6946174785623711  1.0000
  H   H10       1.0  0.7315918777228987  0.5109181642151984  0.05435387735427351  1.0000
  H   H11       1.0  0.6129400814002252  0.34856826524852386  0.9281589658819486  1.0000
  H   H12       1.0  0.37571803299353945  0.32289475614627616  0.028409535189041404  1.0000
  H   H13       1.0  0.2560139449311762  0.5216051958810652  0.951368240620866  1.0000
  H   H14       1.0  0.7212342523561333  0.8836412046093473  0.49542053484791637  1.0000
  H   H15       1.0  0.7246403944069328  0.10957705082429922  0.5062409705531223  1.0000
  H   H16       1.0  0.9245692547457052  0.7956740280860118  0.6001616480310901  1.0000
  H   H17       1.0  0.7627087428292256  0.7393006706196134  0.6335481665800202  1.0000
  H   H18       1.0  0.8906364740796774  0.7900194273122094  0.7086806674772816  1.0000
  H   H19       1.0  0.3843910777904895  0.8336601540523534  0.17035978888709022  1.0000
  H   H20       1.0  0.024545108542476202  0.21423476194481594  0.6294395741038841  1.0000
  C   C1        1.0  0.500898032412536  0.7283297782121851  0.490519290109745  1.0000
  C   C2        1.0  0.4940301836767702  0.5320058459320338  0.9181316084266697  1.0000
  C   C3        1.0  0.428422549081354  0.4082551037416025  0.015734318362532904  1.0000
  C   C4        1.0  0.49534117508431297  0.49704872402531225  0.0862818084394448  1.0000
  C   C5        1.0  0.5605890063720479  0.42216840373448167  0.9622842335504842  1.0000
  C   C6        1.0  0.6264162607806655  0.5125688752300805  0.030335661705031203  1.0000
  C   C7        1.0  0.4976658274364069  0.5430609941178376  0.8307574036213907  1.0000
  C   C8        1.0  0.49395099062188313  0.48124308743611277  0.1730303493645096  1.0000
  C   C9        1.0  0.3812245555394042  0.9298083907496352  0.498867287172871  1.0000
  C   C10       1.0  0.5012963126453158  0.8635193248413129  0.4948951004132028  1.0000
  C   C11       1.0  0.6251747802615455  0.9324303915339703  0.4982635211800996  1.0000
  C   C12       1.0  0.5065065046068824  0.5308979518006752  0.6648073914399859  1.0000
  C   C13       1.0  0.6271024163534378  0.059030723033359316  0.5047162067364965  1.0000
  C   C14       1.0  0.5049462054111657  0.12519125310000595  0.5092143169660375  1.0000
  C   C15       1.0  0.3835566336381007  0.056019052567556606  0.5064311979946012  1.0000
  C   C16       1.0  0.22786760657151456  0.06480180036504632  0.507349545193847  1.0000
  C   C17       1.0  0.2259249995593322  0.9200079475696796  0.4988337630029775  1.0000
  C   C18       1.0  0.9353636104835773  0.5453157041469936  0.5632366804197773  1.0000
  C   C19       1.0  0.929039064568755  0.44627582444712044  0.4363296596404069  1.0000
  C   C20       1.0  0.07202623964553821  0.4417391359105737  0.4370292788584536  1.0000
  C   C21       1.0  0.0781577274679037  0.5395146939933256  0.5643312511569007  1.0000
  C   C22       1.0  0.09275409924046579  0.6051925452463607  0.6489458049663241  1.0000
  C   C23       1.0  0.5066161049719967  0.26033916679335084  0.5131178542860795  1.0000
  C   C24       1.0  0.9292953250619573  0.6150410660150886  0.6473321597114321  1.0000
  C   C25       1.0  0.4981379755709199  0.46550897091271554  0.3378849365880471  1.0000
  C   C26       1.0  0.42669726965151966  0.6079016002313724  0.0415655683358338  1.0000
  C   C27       1.0  0.5602647792690973  0.6217971391558806  0.9886011620659758  1.0000
  C   C28       1.0  0.5031018277310723  0.5427412753525972  0.7548990544233263  1.0000
  C   C29       1.0  0.49514346886645916  0.46917964051501576  0.2480200483505044  1.0000
  C   C30       1.0  0.36184534630329773  0.517526649555528  0.9739652749273233  1.0000
  C   C31       1.0  0.8731627061894541  0.7427042975504108  0.6474223237294298  1.0000
  C   C32       1.0  0.35277484478182686  0.7049574334979242  0.0888948244580234  1.0000
  C   C33       1.0  0.16636249767485373  0.11472000682406504  0.5877617214867286  1.0000
  N   N1        1.0  0.8575078956335248  0.4992719083239622  0.5004116707142856  1.0000
  N   N2        1.0  0.14985003864186552  0.4888627690741744  0.5021276865336901  1.0000
  O   O1        1.0  0.3845115839572201  0.6736274792772933  0.483050379555344  1.0000
  O   O2        1.0  0.6170140483045827  0.6780767308395924  0.4959975527099303  1.0000
  O   O3        1.0  0.3909035873470756  0.53232629846314  0.6271845544174254  1.0000
  O   O4        1.0  0.6237700932886696  0.5183454146075519  0.6312908529893164  1.0000
  O   O5        1.0  0.3902759452215959  0.3108384977128723  0.5186789577609545  1.0000
  O   O6        1.0  0.6229340980538821  0.31455922614051707  0.5090290883228477  1.0000
  O   O7        1.0  0.38251692136575594  0.4552938308267614  0.37386983788656636  1.0000
  O   O8        1.0  0.6159383241514861  0.47496873043228777  0.372942306625859  1.0000
  O   O9        1.0  0.2288045932903771  0.7194383449850009  0.08692825300126832  1.0000
  O   O10       1.0  0.4408647503133451  0.7760361994380531  0.1379939975323197  1.0000
  O   O11       1.0  0.2003549775968168  0.08850657325672272  0.6576325793398183  1.0000
  O   O12       1.0  0.0605169708169413  0.19099892143080416  0.5740653624402441  1.0000
