data_image0
_chemical_formula_structural       Cd4H24C24N16Cl8
_chemical_formula_sum              "Cd4 H24 C24 N16 Cl8"
_cell_length_a       7.138645751956676
_cell_length_b       8.829814577002358
_cell_length_c       14.784171850645961
_cell_angle_alpha    89.99992668599188
_cell_angle_beta     97.52617031217363
_cell_angle_gamma    90.00006329193695

_space_group_name_H-M_alt    "P 1"
_space_group_IT_number       1

loop_
  _space_group_symop_operation_xyz
  'x, y, z'

loop_
  _atom_site_type_symbol
  _atom_site_label
  _atom_site_symmetry_multiplicity
  _atom_site_fract_x
  _atom_site_fract_y
  _atom_site_fract_z
  _atom_site_occupancy
  Cd  Cd1       1.0  0.9089678284087769  0.15095287515628536  0.7628986273323833  1.0000
  Cd  Cd2       1.0  0.5910342167120819  0.650955913782198  0.23710282795817517  1.0000
  Cd  Cd3       1.0  0.0910345864878366  0.8490459066974907  0.2371028552602681  1.0000
  Cd  Cd4       1.0  0.4089653794518  0.3490440005986598  0.7628971200991332  1.0000
  H   H1        1.0  0.7444258267297317  0.5955670271940646  0.6462004603550824  1.0000
  H   H2        1.0  0.7555719322289177  0.0955648035809631  0.3537980513372575  1.0000
  H   H3        1.0  0.2555709434466778  0.4044340197122763  0.353799305501731  1.0000
  H   H4        1.0  0.24442765668021593  0.9044351107983032  0.6462032490548923  1.0000
  H   H5        1.0  0.9555800667210619  0.5579409985394577  0.8140905488385999  1.0000
  H   H6        1.0  0.5444176430790719  0.05794349898520317  0.18590933853620586  1.0000
  H   H7        1.0  0.044419522188079  0.4420589158398087  0.18591075155354994  1.0000
  H   H8        1.0  0.45558477907290745  0.9420564153967772  0.8140907917212346  1.0000
  H   H9        1.0  0.6488856904037803  0.0364126747132403  0.5354814229834588  1.0000
  H   H10       1.0  0.8511190603893369  0.5364154260252789  0.46451893325117066  1.0000
  H   H11       1.0  0.3511252242207306  0.9635849746220725  0.4645165492054133  1.0000
  H   H12       1.0  0.1488791191543868  0.4635867534074478  0.5354815998727815  1.0000
  H   H13       1.0  0.5921435927461405  0.727918715409551  0.5011595463135308  1.0000
  H   H14       1.0  0.9078557302445206  0.2279208257744543  0.4988382981783772  1.0000
  H   H15       1.0  0.4078602532807523  0.27207893392215243  0.49883864654241716  1.0000
  H   H16       1.0  0.09214103630515072  0.7720813536577111  0.5011621438455052  1.0000
  H   H17       1.0  0.14113549841331266  0.9380469358637242  0.9727538320340658  1.0000
  H   H18       1.0  0.3588688201460428  0.43804897442801394  0.027243656724422704  1.0000
  H   H19       1.0  0.8588626883845195  0.06195411104397411  0.027245348755386103  1.0000
  H   H20       1.0  0.6411293630218964  0.5619475423724365  0.9727562002338602  1.0000
  H   H21       1.0  0.12523734141640122  0.6245646997078893  0.968112219785944  1.0000
  H   H22       1.0  0.37476379475579347  0.12456674244567978  0.03188663364077371  1.0000
  H   H23       1.0  0.8747650843635884  0.37543634720150015  0.03188723430372422  1.0000
  H   H24       1.0  0.6252357977794533  0.8754309068811564  0.9681139905846552  1.0000
  C   C1        1.0  0.8199906719973458  0.8171639541039966  0.6983824935457792  1.0000
  C   C2        1.0  0.6800059171484707  0.31716631145855695  0.30161646569901995  1.0000
  C   C3        1.0  0.1800060981784313  0.18283596027573878  0.3016172723113826  1.0000
  C   C4        1.0  0.3199936753886662  0.6828347354481181  0.6983841585253574  1.0000
  C   C5        1.0  0.6909952808129776  0.9394565228439475  0.5781612154982129  1.0000
  C   C6        1.0  0.8090085058803427  0.43945872026101523  0.4218387995249345  1.0000
  C   C7        1.0  0.30901138757464247  0.060541126488082915  0.42183783572529177  1.0000
  C   C8        1.0  0.19099108665680123  0.5605423266456666  0.5781618246994429  1.0000
  C   C9        1.0  0.66271434961633  0.7872290982780964  0.5602226488184103  1.0000
  C   C10       1.0  0.8372850321772134  0.2872312803938044  0.43977651120286515  1.0000
  C   C11       1.0  0.3372894964118203  0.21277081610683268  0.4397755440368343  1.0000
  C   C12       1.0  0.16271032500451102  0.7127686339853625  0.5602231635542269  1.0000
  C   C13       1.0  0.9241794567788162  0.7972563457416867  0.7877838421258687  1.0000
  C   C14       1.0  0.5758227621703185  0.2972576816751555  0.2122154938733374  1.0000
  C   C15       1.0  0.07581872276364272  0.20274356863781406  0.21221669099879395  1.0000
  C   C16       1.0  0.4241796599822934  0.7027433652334449  0.787784636383762  1.0000
  C   C17       1.0  0.0769023207552522  0.8641224262915511  0.9190478896614638  1.0000
  C   C18       1.0  0.4230990749728676  0.36412553219389554  0.08095216744061422  1.0000
  C   C19       1.0  0.9230972754086297  0.13587748808930655  0.08095205839583743  1.0000
  C   C20       1.0  0.5768991118249645  0.6358755147138099  0.9190470133488449  1.0000
  C   C21       1.0  0.07113765685962653  0.708227871319252  0.9180675168620311  1.0000
  C   C22       1.0  0.4288649927414808  0.20822871533604104  0.08193002341253218  1.0000
  C   C23       1.0  0.9288619393048805  0.29177317558821864  0.08193243119492169  1.0000
  C   C24       1.0  0.5711317810610412  0.7917700665178702  0.9180690662775535  1.0000
  N   N1        1.0  0.7873611583514376  0.9566765349145  0.6640069381137296  1.0000
  N   N2        1.0  0.7126398287869338  0.45667770997837914  0.3359915316887553  1.0000
  N   N3        1.0  0.21264127468202795  0.04332224694325498  0.33599116364179343  1.0000
  N   N4        1.0  0.2873611767436302  0.5433222044022442  0.664009183636047  1.0000
  N   N5        1.0  0.7445896799289928  0.7119148946349158  0.6370112502149612  1.0000
  N   N6        1.0  0.755411030975374  0.21191491434638718  0.3629880476437961  1.0000
  N   N7        1.0  0.2554113292283091  0.2880838872198908  0.3629887889427651  1.0000
  N   N8        1.0  0.24458715582120055  0.7880838675080852  0.6370111331463664  1.0000
  N   N9        1.0  0.9866510888227682  0.9182645201536559  0.8378704080375245  1.0000
  N   N10       1.0  0.5133498555345497  0.4182670469711809  0.162128085601374  1.0000
  N   N11       1.0  0.013344257476212804  0.08173426169651067  0.1621312952221956  1.0000
  N   N12       1.0  0.48664974062869965  0.581731734883064  0.8378718624562824  1.0000
  N   N13       1.0  0.97482230899157  0.6680848591118788  0.8348236496783485  1.0000
  N   N14       1.0  0.5251755198557859  0.1680885225147009  0.16517684551300965  1.0000
  N   N15       1.0  0.025173048190154604  0.33191505526728793  0.16517602507875045  1.0000
  N   N16       1.0  0.4748269022962006  0.8319113918672798  0.8348232847444381  1.0000
  Cl  Cl1       1.0  0.12151191687864579  0.32939440591324143  0.8665445131433176  1.0000
  Cl  Cl2       1.0  0.37848661418163954  0.8293956953700956  0.13345538330988663  1.0000
  Cl  Cl3       1.0  0.8784862735484466  0.6706100385750986  0.13345399147765852  1.0000
  Cl  Cl4       1.0  0.6215129783554972  0.17060535153657952  0.8665452409144906  1.0000
  Cl  Cl5       1.0  0.7140191370930609  0.3590580630954889  0.6627471452384129  1.0000
  Cl  Cl6       1.0  0.7859873787874889  0.8590576538559559  0.3372544542123421  1.0000
  Cl  Cl7       1.0  0.28598468354285694  0.640940718757264  0.3372557807891496  1.0000
  Cl  Cl8       1.0  0.21401080438108272  0.1409399954711077  0.6627454027455928  1.0000
