data_image0
_chemical_formula_structural       Ag4H40C48N12O12
_chemical_formula_sum              "Ag4 H40 C48 N12 O12"
_cell_length_a       6.724444804191899
_cell_length_b       14.270607220189113
_cell_length_c       14.6553
_cell_angle_alpha    119.49763719294491
_cell_angle_beta     101.9859959845157
_cell_angle_gamma    89.59704875635151

_space_group_name_H-M_alt    "P 1"
_space_group_IT_number       1

loop_
  _space_group_symop_operation_xyz
  'x, y, z'

loop_
  _atom_site_type_symbol
  _atom_site_label
  _atom_site_symmetry_multiplicity
  _atom_site_fract_x
  _atom_site_fract_y
  _atom_site_fract_z
  _atom_site_occupancy
  Ag  Ag1       1.0  0.1635558883900998  0.0332029868722188  0.2789174894171467  1.0000
  Ag  Ag2       1.0  0.33526533064060965  0.7540121073498227  0.7215449252552233  1.0000
  Ag  Ag3       1.0  0.8364455897426453  0.9667965703618719  0.721080665040077  1.0000
  Ag  Ag4       1.0  0.6647386943630309  0.2459923109921078  0.2784571673040759  1.0000
  H   H1        1.0  0.2139106757095846  0.1522061473753595  0.19179854004565303  1.0000
  H   H2        1.0  0.2859088352429707  0.9596604640622672  0.8096637517239101  1.0000
  H   H3        1.0  0.786108722953017  0.8477990811512086  0.8082081352894477  1.0000
  H   H4        1.0  0.7140941828126659  0.0403463848335832  0.1903394102448743  1.0000
  H   H5        1.0  0.23740718263521643  0.2545162635781821  0.0974457802256623  1.0000
  H   H6        1.0  0.2628011533524486  0.157492602144309  0.9048689582089082  1.0000
  H   H7        1.0  0.7625948284724018  0.745493015871581  0.9025611805406228  1.0000
  H   H8        1.0  0.7371925720667891  0.8425134365668968  0.09513565921219685  1.0000
  H   H9        1.0  0.4245437979813432  0.8866304207100127  0.25805602488910034  1.0000
  H   H10       1.0  0.0763145770149904  0.6279319840257216  0.7417168854666656  1.0000
  H   H11       1.0  0.5754532904870188  0.1133699467087226  0.7419434644305412  1.0000
  H   H12       1.0  0.9236850386570269  0.3720659528390939  0.2582809969595132  1.0000
  H   H13       1.0  0.33983741004952617  0.8043618419201478  0.3621790883861209  1.0000
  H   H14       1.0  0.1615965665739338  0.4401303745394074  0.6369012027781125  1.0000
  H   H15       1.0  0.6601576448555591  0.1956360949446676  0.6378190417979681  1.0000
  H   H16       1.0  0.8383996663817117  0.5598659419561258  0.36309967448899266  1.0000
  H   H17       1.0  0.07184483149217868  0.6470863692590711  0.27429483607873806  1.0000
  H   H18       1.0  0.4302926701965574  0.3696281072605885  0.7240166698072982  1.0000
  H   H19       1.0  0.9281493679001969  0.3529075166825564  0.7256958115418115  1.0000
  H   H20       1.0  0.5697022136059857  0.6303690194195894  0.275985832048285  1.0000
  H   H21       1.0  0.8939634430190964  0.5693677874013829  0.08156399874892635  1.0000
  H   H22       1.0  0.607701888459289  0.4848404138382136  0.9169508254246779  1.0000
  H   H23       1.0  0.10603261883399992  0.4306277189095198  0.9184262385556609  1.0000
  H   H24       1.0  0.392293850855971  0.5151607637651594  0.08305233552444236  1.0000
  H   H25       1.0  0.9768249132064  0.6515099773875761  0.9769711742229177  1.0000
  H   H26       1.0  0.5241951916994054  0.6730074165966754  0.022373569348616174  1.0000
  H   H27       1.0  0.02317200415942008  0.3484895798465217  0.023022451563207386  1.0000
  H   H28       1.0  0.4758003765133126  0.32699295082205276  0.9776244104139947  1.0000
  H   H29       1.0  0.9440866107380119  0.8380979302847821  0.4547364656005257  1.0000
  H   H30       1.0  0.5574466834472247  0.3819655989420596  0.5444973090911985  1.0000
  H   H31       1.0  0.05591671018821389  0.1618959556568385  0.5452605099742058  1.0000
  H   H32       1.0  0.4425554790956952  0.6180371990305886  0.4555065584780563  1.0000
  H   H33       1.0  0.7371705798418519  0.7775576933261164  0.3378817408972026  1.0000
  H   H34       1.0  0.7644225115427332  0.4380595426023318  0.6611862825369527  1.0000
  H   H35       1.0  0.2628329121869157  0.2224370028001417  0.6621135923940287  1.0000
  H   H36       1.0  0.23557813074453554  0.5619432553703234  0.3388188048632727  1.0000
  H   H37       1.0  0.7067246058163974  0.8968671036227676  0.4571157851142189  1.0000
  H   H38       1.0  0.7944859267251374  0.43700306183318105  0.5420825798110799  1.0000
  H   H39       1.0  0.2932765301112568  0.1031308332420551  0.5428815598279897  1.0000
  H   H40       1.0  0.20551471556213843  0.5629997361394743  0.45792046054814506  1.0000
  C   C1        1.0  0.23573222831516458  0.8342592754655769  0.05416890181635383  1.0000
  C   C2        1.0  0.2649670646647806  0.7797678770210936  0.945956365926314  1.0000
  C   C3        1.0  0.7642670648190092  0.165744332691709  0.9458296220083398  1.0000
  C   C4        1.0  0.7350322284693931  0.22023573113619926  0.05404284024537987  1.0000
  C   C5        1.0  0.240747400888381  0.997658123627616  0.05525612289365256  1.0000
  C   C6        1.0  0.2588005661966193  0.942532350610854  0.9457633296952679  1.0000
  C   C7        1.0  0.7592618692923665  0.0023495354528649  0.9447459762437588  1.0000
  C   C8        1.0  0.7412061571132256  0.0574704473617942  0.05423687838106868  1.0000
  C   C9        1.0  0.2318772440407528  0.11106740196491671  0.1089160045732243  1.0000
  C   C10       1.0  0.2677441904942057  0.0020578689828596  0.8925521946788919  1.0000
  C   C11       1.0  0.768134382241101  0.8889370163770138  0.8910847652602172  1.0000
  C   C12       1.0  0.7322675675556952  0.9979327762202104  0.1074419840029818  1.0000
  C   C13       1.0  0.24110622267640033  0.1669976883281237  0.0551239861895709  1.0000
  C   C14       1.0  0.2587495384921539  0.11241473901943519  0.9467844887789809  1.0000
  C   C15       1.0  0.758901336478907  0.8330018689059742  0.9448822535367754  1.0000
  C   C16       1.0  0.7412566911773055  0.8875929200610457  0.05322209706137942  1.0000
  C   C17       1.0  0.2043893494345355  0.7756642918249597  0.11086869848917047  1.0000
  C   C18       1.0  0.2967025755131942  0.6637858950364901  0.8887525469708777  1.0000
  C   C19       1.0  0.7956058765730917  0.2243344552244935  0.8891264247174178  1.0000
  C   C20       1.0  0.7032984089791655  0.3362185233054404  0.11124925586235428  1.0000
  C   C21       1.0  0.3088361293557115  0.8166774586163754  0.21896844276434996  1.0000
  C   C22       1.0  0.192297708758673  0.5966029542233215  0.7805499142409785  1.0000
  C   C23       1.0  0.6911662042897505  0.1833261495409175  0.7810331001744046  1.0000
  C   C24       1.0  0.8077059740398909  0.4033998437493267  0.21945068645630528  1.0000
  C   C25       1.0  0.263779274552249  0.7693853608733293  0.2771202961206995  1.0000
  C   C26       1.0  0.23769837315639114  0.49035858141390065  0.7219811372583819  1.0000
  C   C27       1.0  0.7362059744088115  0.2306093352529288  0.7228726164671713  1.0000
  C   C28       1.0  0.7622993800548983  0.5096377350816397  0.27801920252475293  1.0000
  C   C29       1.0  0.11307663604274859  0.681319910991995  0.22781590688835962  1.0000
  C   C30       1.0  0.38873482165662676  0.4509277052222984  0.7709048739591537  1.0000
  C   C31       1.0  0.8869168986066996  0.3186780258728206  0.7721738902686894  1.0000
  C   C32       1.0  0.6112528030728016  0.5490710418271618  0.22909566605529363  1.0000
  C   C33       1.0  0.011426845183336797  0.638261027987312  0.11958319862649347  1.0000
  C   C34       1.0  0.49016525212201156  0.5162423602581185  0.8792172567996843  1.0000
  C   C35       1.0  0.9885709080279457  0.3617352885082282  0.8804110000336395  1.0000
  C   C36       1.0  0.5098296316805317  0.4837547664220594  0.1207818333208976  1.0000
  C   C37       1.0  0.057976838789343774  0.6845177097618134  0.060961864303891396  1.0000
  C   C38       1.0  0.4432716632270015  0.6219106917892674  0.9383153647256464  1.0000
  C   C39       1.0  0.9420231190877575  0.3154818474722774  0.9390300041672931  1.0000
  C   C40       1.0  0.5567239246529638  0.3780969672912208  0.061684748297494686  1.0000
  C   C41       1.0  0.8904402577243147  0.9197961390888453  0.3687402877372107  1.0000
  C   C42       1.0  0.6105132036637144  0.5501688420128943  0.6306310179571568  1.0000
  C   C43       1.0  0.1095611810739356  0.0801888348217545  0.6312590589749405  1.0000
  C   C44       1.0  0.3894901369297585  0.44983233559047864  0.3693749143481142  1.0000
  C   C45       1.0  0.8146601429380952  0.8548152801242567  0.4069977946269674  1.0000
  C   C46       1.0  0.6867284922315591  0.4461370834523635  0.5922371545677194  1.0000
  C   C47       1.0  0.1853440138335927  0.1451753650788064  0.5929963420867566  1.0000
  C   C48       1.0  0.3132731570037279  0.553863283966372  0.4077661810760134  1.0000
  N   N1        1.0  0.22702198787378342  0.9409670738884586  0.10653404548107658  1.0000
  N   N2        1.0  0.272801355198439  0.8339676089955645  0.8940075241025482  1.0000
  N   N3        1.0  0.7729821885651591  0.059030862976357  0.8934642715341852  1.0000
  N   N4        1.0  0.7272100999808727  0.16603599916172132  0.1059928409733857  1.0000
  N   N5        1.0  0.9566437565820397  0.9714932107136889  0.33823326124622355  1.0000
  N   N6        1.0  0.5440523267882185  0.6330750361135884  0.6612228901867212  1.0000
  N   N7        1.0  0.0433624337529253  0.028499865043293895  0.6617649639910611  1.0000
  N   N8        1.0  0.45594797329397363  0.3669261414897846  0.33878002300448873  1.0000
  N   N9        1.0  0.11360489825857203  0.2868580241792316  0.4184229779501152  1.0000
  N   N10       1.0  0.3859547136556287  0.8684952477524206  0.5822377957059715  1.0000
  N   N11       1.0  0.8863942237730598  0.7131447737934167  0.5815812822400801  1.0000
  N   N12       1.0  0.6140437239658284  0.1315043094816701  0.4177641631071936  1.0000
  O   O1        1.0  0.0271564863473159  0.2091686089685467  0.3222617462811002  1.0000
  O   O2        1.0  0.4712093586729084  0.886866994624576  0.6782275661919783  1.0000
  O   O3        1.0  0.9728421223766901  0.7908317584501816  0.6777412996365726  1.0000
  O   O4        1.0  0.5287863806423516  0.1131341829787971  0.3217762771041492  1.0000
  O   O5        1.0  0.2579173690083394  0.2686993558671205  0.4751911726689357  1.0000
  O   O6        1.0  0.24107418673629163  0.7942847653812635  0.5248956848486444  1.0000
  O   O7        1.0  0.7420798905625647  0.7313018217362526  0.5248121331432143  1.0000
  O   O8        1.0  0.7589210392713355  0.2057139816681968  0.4751083088689541  1.0000
  O   O9        1.0  0.048928158741496496  0.3783562263756721  0.4512136950759924  1.0000
  O   O10       1.0  0.45198579846828585  0.9264736808828218  0.5497769564270243  1.0000
  O   O11       1.0  0.9510721413406956  0.6216449512277009  0.5487885357682175  1.0000
  O   O12       1.0  0.5480122969480874  0.0735242559819937  0.4502241928711257  1.0000
