data_image0
_chemical_formula_structural       Cd2H44C56N4O12
_chemical_formula_sum              "Cd2 H44 C56 N4 O12"
_cell_length_a       8.755705210935547
_cell_length_b       12.904661865618928
_cell_length_c       17.097201297533132
_cell_angle_alpha    67.82765795764102
_cell_angle_beta     85.94448526997691
_cell_angle_gamma    79.23555592627937

_space_group_name_H-M_alt    "P 1"
_space_group_IT_number       1

loop_
  _space_group_symop_operation_xyz
  'x, y, z'

loop_
  _atom_site_type_symbol
  _atom_site_label
  _atom_site_symmetry_multiplicity
  _atom_site_fract_x
  _atom_site_fract_y
  _atom_site_fract_z
  _atom_site_occupancy
  Cd  Cd1       1.0  0.45684357014513904  0.15237528431521952  3.49529401332948e-05  1.0000
  Cd  Cd2       1.0  0.5431537283874874  0.8476259322729547  0.9999659650655629  1.0000
  H   H1        1.0  0.11500497561881672  0.8931355810167148  4.9572225911726764e-05  1.0000
  H   H2        1.0  0.8849915528862266  0.1068673733855121  0.9999479124489454  1.0000
  H   H3        1.0  0.6786006595318166  0.4665682852900873  0.00010311718109082567  1.0000
  H   H4        1.0  0.3214063908977208  0.5334313298191233  0.9998968180549568  1.0000
  H   H5        1.0  0.2176222312762731  0.2712932389848178  0.8531065649790008  1.0000
  H   H6        1.0  0.7823740813361724  0.8756075226655539  0.852943329634293  1.0000
  H   H7        1.0  0.7823722073078796  0.7287080163307068  0.14689177813824733  1.0000
  H   H8        1.0  0.21762554088729047  0.12438937761980638  0.1470568024189234  1.0000
  H   H9        1.0  0.6930948275638116  0.17437321190065086  0.8412194708862443  1.0000
  H   H10       1.0  0.3068862719590867  0.9842691017119233  0.8412081898849593  1.0000
  H   H11       1.0  0.30689979374449167  0.8256281499124044  0.15878301023982297  1.0000
  H   H12       1.0  0.6931125609535157  0.015731427493271565  0.15879171166788808  1.0000
  H   H13       1.0  0.6900145781986281  0.2504455425852326  0.6818788168232714  1.0000
  H   H14       1.0  0.3099487925761508  0.06753758068258241  0.68186905776939  1.0000
  H   H15       1.0  0.3099857729304887  0.7495556054239216  0.31812385614269806  1.0000
  H   H16       1.0  0.6900513851882337  0.9324617060724449  0.31813123229428447  1.0000
  H   H17       1.0  0.4348856407342082  0.34096064913009644  0.6077705793299586  1.0000
  H   H18       1.0  0.5650715761862414  0.051090575672652995  0.6076769398086198  1.0000
  H   H19       1.0  0.5651187293512051  0.6590396961228677  0.392230333990959  1.0000
  H   H20       1.0  0.43492726608578647  0.9489081987759534  0.3923247168507443  1.0000
  H   H21       1.0  0.05942868827590081  0.3692846844138201  0.7324458894580558  1.0000
  H   H22       1.0  0.9405009195511617  0.8981408816090737  0.7322396021836538  1.0000
  H   H23       1.0  0.9405709245881294  0.6307139706281292  0.26755248748863647  1.0000
  H   H24       1.0  0.059500205289758405  0.10185956207456574  0.26776037610515147  1.0000
  H   H25       1.0  0.15069813934283618  0.4575208298582324  0.6404342055961365  1.0000
  H   H26       1.0  0.8493269348823561  0.9021436114438113  0.6401419271989893  1.0000
  H   H27       1.0  0.8492985942894434  0.5424797550168705  0.35956479929257773  1.0000
  H   H28       1.0  0.15067343553003099  0.09785564545955333  0.35985754293651684  1.0000
  H   H29       1.0  0.7814495569152838  0.2611734672891971  0.4665337183589243  1.0000
  H   H30       1.0  0.2183581718750033  0.27253769939539996  0.4664369644898727  1.0000
  H   H31       1.0  0.21854564545683539  0.7388272200500053  0.5334668880181468  1.0000
  H   H32       1.0  0.7816446893533279  0.7274602722970087  0.5335629325244327  1.0000
  H   H33       1.0  0.5986695116432513  0.4382540016151566  0.45786077735004227  1.0000
  H   H34       1.0  0.401286463837259  0.10421614540479138  0.45767542117112464  1.0000
  H   H35       1.0  0.4013268398128387  0.5617460580443991  0.542140452430516  1.0000
  H   H36       1.0  0.5987173475874169  0.8957823982973709  0.5423247491038268  1.0000
  H   H37       1.0  0.6599145803471487  0.5532619094400886  0.5374272160152245  1.0000
  H   H38       1.0  0.34034191524738594  0.9095835190423074  0.5373472889685759  1.0000
  H   H39       1.0  0.34008539540980803  0.4467391619231975  0.4625721388700938  1.0000
  H   H40       1.0  0.6596586540526203  0.09041453817165744  0.4626525313097716  1.0000
  H   H41       1.0  0.898215664414934  0.492999736333978  0.6225107683260019  1.0000
  H   H42       1.0  0.1020560576916623  0.8845750888083043  0.6224941759152145  1.0000
  H   H43       1.0  0.1017881282908846  0.5070023168813691  0.37748589173591546  1.0000
  H   H44       1.0  0.8979429678689357  0.1154254105452352  0.37750490570946477  1.0000
  C   C1        1.0  0.19727002903495358  0.045773142152043506  2.068394997679759e-05  1.0000
  C   C2        1.0  0.802727275737304  0.9542269045983925  0.9999814041267355  1.0000
  C   C3        1.0  0.07611681614969959  0.9787936590364128  1.5069096669342035e-05  1.0000
  C   C4        1.0  0.9238785695109895  0.021208753207723603  0.9999829622457098  1.0000
  C   C5        1.0  0.5258224309144025  0.34806746933558935  2.8610654723606716e-05  1.0000
  C   C6        1.0  0.4741815569948143  0.6519323507018343  0.999974527558038  1.0000
  C   C7        1.0  0.5572052612895957  0.45737927265457773  3.6361182893112106e-05  1.0000
  C   C8        1.0  0.4428002485203564  0.5426221996753353  0.9999634204349945  1.0000
  C   C9        1.0  0.31889636715021646  0.2694075762962741  0.812023925421357  1.0000
  C   C10       1.0  0.6810892277699593  0.9184861726935125  0.8118894113880301  1.0000
  C   C11       1.0  0.6811005591300584  0.7305929787271667  0.18797425953918892  1.0000
  C   C12       1.0  0.318911145762236  0.08151249929098728  0.1881106437829843  1.0000
  C   C13       1.0  0.5854963497559711  0.21490018072739747  0.8054958368876228  1.0000
  C   C14       1.0  0.41449109652479155  0.9794623803264387  0.8054546008607274  1.0000
  C   C15       1.0  0.41450114766428203  0.7850998361713836  0.19450543126092157  1.0000
  C   C16       1.0  0.5855090812395928  0.02053690642858187  0.19454568920293977  1.0000
  C   C17       1.0  0.5829561407642458  0.2575046587193056  0.7174677689430168  1.0000
  C   C18       1.0  0.41701769955808715  0.024869038525302783  0.717418024819132  1.0000
  C   C19       1.0  0.4170443998930579  0.7424970443570588  0.2825334990592836  1.0000
  C   C20       1.0  0.5829813291223258  0.9751308759093649  0.2825816418410554  1.0000
  C   C21       1.0  0.4407583381553052  0.3079148543560634  0.6765365925711463  1.0000
  C   C22       1.0  0.559205331232036  0.015371496334722692  0.6764390288163327  1.0000
  C   C23       1.0  0.5592452712619431  0.6920854739543502  0.32346264252545603  1.0000
  C   C24       1.0  0.4407946507645375  0.9846284051908326  0.32356149614000174  1.0000
  C   C25       1.0  0.30518195219158883  0.31478019473021124  0.7242162246401448  1.0000
  C   C26       1.0  0.6947744855684662  0.9608686268431939  0.7240788213989902  1.0000
  C   C27       1.0  0.6948170702492005  0.6852208895421936  0.2757822719490264  1.0000
  C   C28       1.0  0.30522454935157123  0.03913011775374999  0.27592201533220617  1.0000
  C   C29       1.0  0.14917011292654783  0.36913735721424257  0.6838554145677733  1.0000
  C   C30       1.0  0.8507971287069435  0.9469501636167055  0.6836801268689641  1.0000
  C   C31       1.0  0.850830055478411  0.6308636842973812  0.3161431203893769  1.0000
  C   C32       1.0  0.14920076024893095  0.053048623741020186  0.3163206714942532  1.0000
  C   C33       1.0  0.9776210001762705  0.34354769418170156  0.5915493281612925  1.0000
  C   C34       1.0  0.022375024180739413  0.06498637145156026  0.5914792218428389  1.0000
  C   C35       1.0  0.022376478525117642  0.6564558322302645  0.4084484297742108  1.0000
  C   C36       1.0  0.9776266848438053  0.9350128128393607  0.4085194667324784  1.0000
  C   C37       1.0  0.9444517126962776  0.277681361067124  0.5470168254912764  1.0000
  C   C38       1.0  0.05546830790149928  0.17540966625187346  0.5469620206580785  1.0000
  C   C39       1.0  0.05554979744064778  0.7223190229131901  0.45298151294120004  1.0000
  C   C40       1.0  0.9445286246183993  0.8245897189338294  0.4530373343734837  1.0000
  C   C41       1.0  0.8066596114728881  0.312661522256505  0.5004712743964886  1.0000
  C   C42       1.0  0.19322321240137794  0.18708722881439135  0.5003569906570178  1.0000
  C   C43       1.0  0.19333997898806393  0.6873396088101059  0.4995297203451656  1.0000
  C   C44       1.0  0.8067798414749489  0.8129107130263549  0.4996420864291268  1.0000
  C   C45       1.0  0.7036693514527456  0.41144933299496966  0.49608246510727133  1.0000
  C   C46       1.0  0.29630799880280984  0.092745136355873  0.4959414350930586  1.0000
  C   C47       1.0  0.2963304316562016  0.5885517682199717  0.5039177097062223  1.0000
  C   C48       1.0  0.703691036117227  0.9072536082410639  0.5040594016381377  1.0000
  C   C49       1.0  0.7383564951477835  0.47564018637307026  0.5401776521204624  1.0000
  C   C50       1.0  0.26177194841014256  0.9844191411389789  0.5400712900865159  1.0000
  C   C51       1.0  0.26164384038227684  0.5243638862304111  0.45982209566798093  1.0000
  C   C52       1.0  0.7382274811653173  0.015577788998037023  0.45992966189486845  1.0000
  C   C53       1.0  0.8738348623090386  0.4420672446043809  0.5882096219791393  1.0000
  C   C54       1.0  0.12629991553607298  0.9698549750818871  0.5881445227713797  1.0000
  C   C55       1.0  0.12616758866480637  0.5579354661422754  0.411787234607452  1.0000
  C   C56       1.0  0.8736968243358306  0.030144439955478122  0.41185565218835046  1.0000
  N   N1        1.0  0.45576316937829353  0.22058703109906466  0.8513881278721769  1.0000
  N   N2        1.0  0.5442264169562634  0.9279445133212147  0.8513036909374208  1.0000
  N   N3        1.0  0.5442320329938253  0.7794136562401377  0.1486124785048943  1.0000
  N   N4        1.0  0.4557714688797957  0.07205485895536869  0.1486965223902885  1.0000
  O   O1        1.0  0.3406171554888218  0.9974862376358614  1.5464202512313643e-05  1.0000
  O   O2        1.0  0.6593801529676495  0.0025148426031122903  0.9999804958661966  1.0000
  O   O3        1.0  0.16180601035075168  0.14515081175061081  2.4497260398010327e-05  1.0000
  O   O4        1.0  0.8381928313568705  0.8548463442905926  0.9999838724424774  1.0000
  O   O5        1.0  0.641951854756961  0.2713041951676304  5.886144216299236e-05  1.0000
  O   O6        1.0  0.3580517515404791  0.7286967180616556  0.9999397886189313  1.0000
  O   O7        1.0  0.3844536769446519  0.3345493917093661  0.9999951491814443  1.0000
  O   O8        1.0  0.615549931908184  0.6654493181936516  1.0798958662398064e-05  1.0000
  O   O9        1.0  0.1131953024704657  0.3047471049634112  0.6364563573457929  1.0000
  O   O10       1.0  0.8867765320327617  0.05878305751242138  0.6364055435120407  1.0000
  O   O11       1.0  0.8868073536306229  0.6952532362561287  0.3635420194546625  1.0000
  O   O12       1.0  0.11322382902019248  0.9412179541475398  0.3635921715169488  1.0000
