data_image0
_chemical_formula_structural       Cd2H44C36S2N12O12
_chemical_formula_sum              "Cd2 H44 C36 S2 N12 O12"
_cell_length_a       8.909948705301836
_cell_length_b       12.01209813597103
_cell_length_c       12.717
_cell_angle_alpha    89.85995260458525
_cell_angle_beta     79.80872219818971
_cell_angle_gamma    69.39129782793383

_space_group_name_H-M_alt    "P 1"
_space_group_IT_number       1

loop_
  _space_group_symop_operation_xyz
  'x, y, z'

loop_
  _atom_site_type_symbol
  _atom_site_label
  _atom_site_symmetry_multiplicity
  _atom_site_fract_x
  _atom_site_fract_y
  _atom_site_fract_z
  _atom_site_occupancy
  Cd  Cd1       1.0  0.21791417642262453  0.2613618190256517  0.30049135777861846  1.0000
  Cd  Cd2       1.0  0.7820861849285734  0.7386384355275837  0.6995084395684614  1.0000
  H   H1        1.0  0.006183480904773792  0.497777242951372  0.4187203445945969  1.0000
  H   H2        1.0  0.9938150358615587  0.5022221203090282  0.5812883333156833  1.0000
  H   H3        1.0  0.9130275824081197  0.40561132498007174  0.4053094448175615  1.0000
  H   H4        1.0  0.0869716386106276  0.5943889295731566  0.5946920665904117  1.0000
  H   H5        1.0  0.40614873383844224  0.3624210568835906  0.4322806631499958  1.0000
  H   H6        1.0  0.5938510911680056  0.6375756324983115  0.5677184225681062  1.0000
  H   H7        1.0  0.5382592035345083  0.2814676027501264  0.33424395865914397  1.0000
  H   H8        1.0  0.4617396816689094  0.7185379995601053  0.6657505048909231  1.0000
  H   H9        1.0  0.28119925807624196  0.7512181425710764  0.233050105885404  1.0000
  H   H10       1.0  0.7188015393549989  0.2487812206893238  0.7669512121581691  1.0000
  H   H11       1.0  0.8278614773887439  0.0278644878348331  0.20717653385526094  1.0000
  H   H12       1.0  0.17213844788241772  0.9721366580112304  0.7928233154932799  1.0000
  H   H13       1.0  0.07683895835847207  0.7560453845540422  0.9497213645948079  1.0000
  H   H14       1.0  0.9231599944879035  0.24395308741352303  0.05028018417316824  1.0000
  H   H15       1.0  0.3588700312258978  0.6290584381871582  0.9531586403632419  1.0000
  H   H16       1.0  0.6411291897928494  0.3709418163660771  0.04684287104473131  1.0000
  H   H17       1.0  0.44345812902969334  0.6229486258176493  0.07200961631568253  1.0000
  H   H18       1.0  0.556541964149126  0.3770498461499159  0.9279910047403774  1.0000
  H   H19       1.0  0.37802270335641447  0.4822812257586406  0.2184260542203731  1.0000
  H   H20       1.0  0.6219751091575105  0.5177172462089246  0.781574849561558  1.0000
  H   H21       1.0  0.11646446705096028  0.3295510684992138  0.056464577462989524  1.0000
  H   H22       1.0  0.883533613635336  0.6704491860540216  0.9435315708650479  1.0000
  H   H23       1.0  0.18132497034322623  0.5095307215387734  0.9351116063468794  1.0000
  H   H24       1.0  0.8186749549279284  0.4904704243072899  0.06488824300166844  1.0000
  H   H25       1.0  0.1597380267278936  0.9138095637336718  0.3665468013906762  1.0000
  H   H26       1.0  0.8402634749557548  0.0861906908195635  0.6334528545934647  1.0000
  H   H27       1.0  0.012594055361340398  0.0471565212028722  0.3335205746945746  1.0000
  H   H28       1.0  0.9874070102422718  0.9528446246431912  0.6664807059890026  1.0000
  H   H29       1.0  0.06144813119102103  0.7729237969305985  0.49036049171110824  1.0000
  H   H30       1.0  0.9385567914899793  0.227076457622637  0.5096395265332065  1.0000
  H   H31       1.0  0.5641035792333751  0.9882351891590063  0.5786361446817383  1.0000
  H   H32       1.0  0.43589966677042463  0.0117615002228959  0.42136487599449884  1.0000
  H   H33       1.0  0.7104247213104173  0.0870097889329955  0.40724182043807394  1.0000
  H   H34       1.0  0.2895749357883658  0.9129895743274048  0.5927604253174154  1.0000
  H   H35       1.0  0.8106650240390678  0.0330134865304785  0.9755880068616705  1.0000
  H   H36       1.0  0.18933463305971546  0.9669858767299218  0.024412666195857503  1.0000
  H   H37       1.0  0.8054950320289223  0.8915272429112663  0.9448821463421313  1.0000
  H   H38       1.0  0.1945062014823478  0.108471229056299  0.055117547002012705  1.0000
  H   H39       1.0  0.5872809330544655  0.1741577282550892  0.11476993963341191  1.0000
  H   H40       1.0  0.41271872404431775  0.825841635005311  0.8852299470751319  1.0000
  H   H41       1.0  0.3280903075227784  0.9540015227402918  0.2368232621842452  1.0000
  H   H42       1.0  0.671909349576012  0.0459978405201085  0.7631766245243058  1.0000
  H   H43       1.0  0.6091656266175318  0.8171140955855948  0.09395381590185543  1.0000
  H   H44       1.0  0.3908344665612944  0.1828843763819705  0.9060460188052275  1.0000
  C   C1        1.0  0.19304614080092358  0.742563689163653  0.08668585471624371  1.0000
  C   C2        1.0  0.8069535162978666  0.2574356740967474  0.9133148183412845  1.0000
  C   C3        1.0  0.18369373963425767  0.7920990709375246  0.18808865996900445  1.0000
  C   C4        1.0  0.8163073259693475  0.20790207490853874  0.8119110480166044  1.0000
  C   C5        1.0  0.05128060396415892  0.8939132338249252  0.23196515811304863  1.0000
  C   C6        1.0  0.9487208977194898  0.1060870207283031  0.7680352842200764  1.0000
  C   C7        1.0  0.9273520078452862  0.9456135658899072  0.17389502393740494  1.0000
  C   C8        1.0  0.07264791742586849  0.05438757995616331  0.82610561176012  1.0000
  C   C9        1.0  0.9340409459905388  0.8954248664695186  0.0733389656302208  1.0000
  C   C10       1.0  0.06595914718828771  0.1045736054980466  0.9266616554258391  1.0000
  C   C11       1.0  0.06767767758255873  0.7943896935180703  0.0294600417846667  1.0000
  C   C12       1.0  0.9323208391837738  0.20560966974233  0.9705415589847776  1.0000
  C   C13       1.0  0.33318222790990865  0.6303766602870056  0.04092365015645782  1.0000
  C   C14       1.0  0.6668169931088386  0.36962359426622265  0.9590770749025384  1.0000
  C   C15       1.0  0.31231659593034067  0.4655587896278419  0.15969250207665917  1.0000
  C   C16       1.0  0.6876832290761072  0.5344378997540602  0.8403057972924588  1.0000
  C   C17       1.0  0.18139817256938068  0.3872899095070609  0.0713051827063467  1.0000
  C   C18       1.0  0.8185987677844652  0.6127103450461746  0.928692679682591  1.0000
  C   C19       1.0  0.20954771386097082  0.4758345046982981  0.011413936747054314  1.0000
  C   C20       1.0  0.7904483543328025  0.5241675324406003  0.9885856023427738  1.0000
  C   C21       1.0  0.04244533306041372  0.9507821730278679  0.3396201795635251  1.0000
  C   C22       1.0  0.9575550282907841  0.049218081525360405  0.6603804041325319  1.0000
  C   C23       1.0  0.9438648898183714  0.8427325254815302  0.49053719155096337  1.0000
  C   C24       1.0  0.056137316117684605  0.1572686203645404  0.5094623750717133  1.0000
  C   C25       1.0  0.6882403715684119  0.9573064365646715  0.5339124523476857  1.0000
  C   C26       1.0  0.3117635786878025  0.0426911441100657  0.46608847896708744  1.0000
  C   C27       1.0  0.7568546653930994  0.007371883020887501  0.4500846547447566  1.0000
  C   C28       1.0  0.24314656811817775  0.9926265889466848  0.5499166112973484  1.0000
  C   C29       1.0  0.7994193943390258  0.9522697407659778  0.011095456627693111  1.0000
  C   C30       1.0  0.20058140309220818  0.047729622494422606  0.9889042887179188  1.0000
  C   C31       1.0  0.5498357803069852  0.0977739324758815  0.12803755593256483  1.0000
  C   C32       1.0  0.45016360861942667  0.9022236481988558  0.8719615817869981  1.0000
  C   C33       1.0  0.4233624776284656  0.9797144296765126  0.19062999941307623  1.0000
  C   C34       1.0  0.5766371794703176  0.020284933583887704  0.8093691009464905  1.0000
  C   C35       1.0  0.5605866045322043  0.9109939696745499  0.12006433712014093  1.0000
  C   C36       1.0  0.43941348864662194  0.0890045022930153  0.879934711237951  1.0000
  S   S1        1.0  0.8151438587637755  0.2997275190176723  0.27301021425700617  1.0000
  S   S2        1.0  0.18485563042734296  0.7002745181212262  0.7269881143950414  1.0000
  N   N1        1.0  0.2926794459681972  0.5242842918017061  0.06869095724219679  1.0000
  N   N2        1.0  0.7073190707981424  0.4757150714586942  0.9313090708292793  1.0000
  N   N3        1.0  0.24599526192729115  0.3817041773233001  0.16311047630189532  1.0000
  N   N4        1.0  0.7540036909190846  0.6182942946442651  0.8368879270701512  1.0000
  N   N5        1.0  0.9189444545364296  0.9335356567113281  0.4240239039829561  1.0000
  N   N6        1.0  0.08105862355970568  0.0664637065490723  0.5759763449857687  1.0000
  N   N7        1.0  0.8057457900055949  0.8552828198615431  0.5582397666393178  1.0000
  N   N8        1.0  0.19425930058307012  0.1447147608131942  0.4417594506145548  1.0000
  N   N9        1.0  0.6388795311369861  0.9874758076653762  0.08043054813908412  1.0000
  N   N10       1.0  0.3611205620418331  0.012522664302189002  0.9195692865679918  1.0000
  N   N11       1.0  0.4177353123581398  0.09603947662306922  0.19498611323151493  1.0000
  N   N12       1.0  0.5822632044081999  0.9039598866373311  0.8050131284909839  1.0000
  O   O1        1.0  0.01725986987892717  0.41427469131582484  0.42179418289389764  1.0000
  O   O2        1.0  0.9827402232998994  0.5857237806517404  0.5782095835580919  1.0000
  O   O3        1.0  0.417004695057031  0.3201096035203435  0.3648361471465621  1.0000
  O   O4        1.0  0.5829935861586789  0.6798995639612215  0.6351568103484696  1.0000
  O   O5        1.0  0.995133922103825  0.2270051541960001  0.24203154682830078  1.0000
  O   O6        1.0  0.004865131007257134  0.7729977742357264  0.757967620174192  1.0000
  O   O7        1.0  0.7801045986101868  0.3611046173693993  0.38205060388518325  1.0000
  O   O8        1.0  0.2198944545008955  0.6388983110623272  0.6179469904193483  1.0000
  O   O9        1.0  0.763491495547079  0.3865456799915918  0.19221835306269242  1.0000
  O   O10       1.0  0.23650816155171134  0.6134536832688084  0.8077776019009448  1.0000
  O   O11       1.0  0.7239899598103676  0.2147882033354946  0.2794359666375783  1.0000
  O   O12       1.0  0.2760095293807582  0.7852138338034038  0.7205631483634536  1.0000
