data_image0
_chemical_formula_structural       Cu4H56C28N8O20
_chemical_formula_sum              "Cu4 H56 C28 N8 O20"
_cell_length_a       7.940971977079101
_cell_length_b       9.085052953428253
_cell_length_c       14.900837527004423
_cell_angle_alpha    90.00004557591595
_cell_angle_beta     89.99992468870636
_cell_angle_gamma    90.01161088637603

_space_group_name_H-M_alt    "P 1"
_space_group_IT_number       1

loop_
  _space_group_symop_operation_xyz
  'x, y, z'

loop_
  _atom_site_type_symbol
  _atom_site_label
  _atom_site_symmetry_multiplicity
  _atom_site_fract_x
  _atom_site_fract_y
  _atom_site_fract_z
  _atom_site_occupancy
  Cu  Cu1       1.0  0.5399048026423117  0.7366224231551756  0.5000000749934941  1.0000
  Cu  Cu2       1.0  0.4600576255536737  0.23658310030300822  0.500000651792263  1.0000
  Cu  Cu3       1.0  0.9821694855101981  0.46355300647585546  4.4258177920000013e-07  1.0000
  Cu  Cu4       1.0  0.017866139189017395  0.9635875921070111  2.2904173140000006e-07  1.0000
  H   H1        1.0  0.6872102416678274  0.46612513681957773  0.5544385084593771  1.0000
  H   H2        1.0  0.31278192204558053  0.9661167914816744  0.4455717258335953  1.0000
  H   H3        1.0  0.6872091175256402  0.4661250661955736  0.4455640913633659  1.0000
  H   H4        1.0  0.3127780089155934  0.9661157609420955  0.5544273520410101  1.0000
  H   H5        1.0  0.8099959203612528  0.737030577607108  0.9455930552069564  1.0000
  H   H6        1.0  0.18997290619772403  0.23704670798765196  0.0544123695119296  1.0000
  H   H7        1.0  0.8099932488728426  0.737031100801211  0.054408249257477316  1.0000
  H   H8        1.0  0.18997054052596948  0.2370461843477329  0.9455918066374311  1.0000
  H   H9        1.0  0.6381499924611518  0.9426914251077889  0.3986641764651111  1.0000
  H   H10       1.0  0.3619009119216513  0.4426459933836995  0.6013433619429451  1.0000
  H   H11       1.0  0.6381484817113475  0.9426926569700883  0.6013386901989932  1.0000
  H   H12       1.0  0.361901163651261  0.4426469628215485  0.3986574394553486  1.0000
  H   H13       1.0  0.6460146522865743  0.7838025266471578  0.3437403765561911  1.0000
  H   H14       1.0  0.35401043353936495  0.28372716406920523  0.6562375557273799  1.0000
  H   H15       1.0  0.6460142642153316  0.7838016283447049  0.6562610648437258  1.0000
  H   H16       1.0  0.3540171183976852  0.2837313650817778  0.3437631735604399  1.0000
  H   H17       1.0  0.8756376814130746  0.4155847580373334  0.1559380114293063  1.0000
  H   H18       1.0  0.12440563523189499  0.9156175870234693  0.8440466962550701  1.0000
  H   H19       1.0  0.8756368270921513  0.4155841029977268  0.8440624192971671  1.0000
  H   H20       1.0  0.12441152706901451  0.9156215446517422  0.15595181692781784  1.0000
  H   H21       1.0  0.8648715040788559  0.25994131308855384  0.0977519860567142  1.0000
  H   H22       1.0  0.13509512783281957  0.7599959143843975  0.902250094343437  1.0000
  H   H23       1.0  0.8648705052980928  0.25994073341995977  0.9022510605739386  1.0000
  H   H24       1.0  0.1350973859086153  0.7599964941618325  0.0977483354129021  1.0000
  H   H25       1.0  0.9236070322213833  0.884440525220782  0.3563671115797292  1.0000
  H   H26       1.0  0.0764566941365672  0.3843615245942616  0.6436276474109448  1.0000
  H   H27       1.0  0.9236066761416879  0.8844451141079473  0.6436341858137951  1.0000
  H   H28       1.0  0.07646208801646989  0.38436243969999134  0.356368626415069  1.0000
  H   H29       1.0  0.9026439674682365  0.7158365129833228  0.4163986026734534  1.0000
  H   H30       1.0  0.09735767446971272  0.21578312511297074  0.5836121804938375  1.0000
  H   H31       1.0  0.9026437601687077  0.7158388226929591  0.583603298080334  1.0000
  H   H32       1.0  0.09736040063916108  0.21578301702742664  0.4163839964740177  1.0000
  H   H33       1.0  0.6275657910282179  0.5097230840871845  0.085907828922501  1.0000
  H   H34       1.0  0.37252241590577745  0.009761372208771501  0.9140786938771444  1.0000
  H   H35       1.0  0.6275635036831203  0.5097236203570218  0.9140921492771669  1.0000
  H   H36       1.0  0.37251966631806255  0.009763036926891303  0.0859131644148405  1.0000
  H   H37       1.0  0.5882523705839728  0.34146198087518104  0.14369784173933206  1.0000
  H   H38       1.0  0.41173583559330496  0.8414814538838726  0.8563022651411886  1.0000
  H   H39       1.0  0.5882540043284763  0.34146024120311586  0.8563034238581153  1.0000
  H   H40       1.0  0.4117404989573785  0.8414886976507178  0.14369131419582715  1.0000
  H   H41       1.0  0.8620942355341511  0.022686795055761908  0.4999997885983306  1.0000
  H   H42       1.0  0.1379932084852413  0.5225883750514199  0.49999814925300273  1.0000
  H   H43       1.0  0.05211482860634221  0.9235262146795479  0.5000002903276481  1.0000
  H   H44       1.0  0.9479605540293008  0.423441589002536  0.4999978432590169  1.0000
  H   H45       1.0  0.4514690597318989  0.32654297328094384  5.937617757000001e-07  1.0000
  H   H46       1.0  0.5485043281855296  0.8265921582534546  0.9999974925366362  1.0000
  H   H47       1.0  0.6214979498468908  0.20212669576779524  0.9999999990934472  1.0000
  H   H48       1.0  0.378426218664643  0.7021783873720226  0.9999981924347241  1.0000
  H   H49       1.0  0.102359214841897  0.693842203355949  0.24847744208061334  1.0000
  H   H50       1.0  0.8976259647078989  0.19390427102525362  0.751470246678487  1.0000
  H   H51       1.0  0.10235858962644781  0.6938359249009809  0.7515196359437584  1.0000
  H   H52       1.0  0.8976202925594733  0.1939039447424307  0.24853542933063016  1.0000
  H   H53       1.0  0.42732143920046883  0.5063110185361666  0.24932287329443178  1.0000
  H   H54       1.0  0.572660176926192  0.006242263500091401  0.7506958608044842  1.0000
  H   H55       1.0  0.42732333518078747  0.5063091420442022  0.750675229257432  1.0000
  H   H56       1.0  0.5726532438248596  0.0062441395258048  0.24930659416629913  1.0000
  C   C1        1.0  0.862445798399932  0.8315824452054914  0.4144537877946561  1.0000
  C   C2        1.0  0.13756401471348306  0.3315185093084524  0.5855375898920414  1.0000
  C   C3        1.0  0.8624468455653441  0.8315847575440501  0.5855468552402598  1.0000
  C   C4        1.0  0.13756800508426892  0.33151949954812926  0.4144579445098345  1.0000
  C   C5        1.0  0.6537288022714379  0.39094676680208107  0.0859534258402235  1.0000
  C   C6        1.0  0.34628734757338003  0.8909933421153159  0.9140386519617536  1.0000
  C   C7        1.0  0.6537277744575222  0.3909484038337681  0.9140484894668648  1.0000
  C   C8        1.0  0.3462896353107112  0.8909972087456385  0.08595298378105552  1.0000
  C   C9        1.0  0.9148313761367819  0.9104848252800509  0.4999999870046211  1.0000
  C   C10       1.0  0.08521325467980027  0.4104148831492296  0.4999988113315013  1.0000
  C   C11       1.0  0.5893934895425659  0.32010823233181185  5.442068556000002e-07  1.0000
  C   C12       1.0  0.4105796544889914  0.8201684159995254  0.9999982100554947  1.0000
  C   C13       1.0  0.303559734065999  0.7354766445962471  0.34716713692346707  1.0000
  C   C14       1.0  0.6964062086065255  0.23547572773556882  0.6528349315173971  1.0000
  C   C15       1.0  0.3035593541209707  0.7354724397253849  0.6528304925391382  1.0000
  C   C16       1.0  0.6964053290074974  0.23547773107510753  0.34716754928233234  1.0000
  C   C17       1.0  0.2244309568484439  0.46473696827133193  0.15122509209162874  1.0000
  C   C18       1.0  0.7755923660548588  0.9647410823291979  0.8487858126189209  1.0000
  C   C19       1.0  0.22443260992442055  0.4647407223941968  0.8487758157453344  1.0000
  C   C20       1.0  0.7755907133849008  0.9647406303230999  0.15121898248882104  1.0000
  C   C21       1.0  0.22540755148291683  0.6546413641390246  0.2709190812769934  1.0000
  C   C22       1.0  0.7745848262339836  0.15464106590822269  0.7290735522383542  1.0000
  C   C23       1.0  0.22540446339849746  0.6546350563942341  0.7290785630928769  1.0000
  C   C24       1.0  0.7745803582899881  0.15464517158223154  0.27093084800498  1.0000
  C   C25       1.0  0.30427061487331736  0.5457771284760325  0.22697250420119275  1.0000
  C   C26       1.0  0.6957328287808194  0.0457707422263667  0.7730301426992414  1.0000
  C   C27       1.0  0.3042699366545349  0.545774180003832  0.7730243610347077  1.0000
  C   C28       1.0  0.6957259517723884  0.0457780928669678  0.22697157483726477  1.0000
  N   N1        1.0  0.6776627123398812  0.8343653137921551  0.4027075331533824  1.0000
  N   N2        1.0  0.322308717013513  0.33433274291078163  0.5973059923193489  1.0000
  N   N3        1.0  0.6776637302144054  0.8343665406368501  0.5972932398121744  1.0000
  N   N4        1.0  0.3223127365956557  0.3343337179096082  0.4026941126338742  1.0000
  N   N5        1.0  0.8375201074563846  0.37123160278262196  0.09624338271172662  1.0000
  N   N6        1.0  0.16249269319497733  0.871286611033227  0.9037520409827452  1.0000
  N   N7        1.0  0.8375178458983115  0.37123322637444306  0.9037577239838016  1.0000
  N   N8        1.0  0.1624949551290698  0.8712882895738191  0.09624575295008243  1.0000
  O   O1        1.0  0.3857318354956761  0.6567490783205301  0.4044605129543157  1.0000
  O   O2        1.0  0.6141149625830096  0.15679528441874174  0.5955549391615947  1.0000
  O   O3        1.0  0.3857353760506825  0.6567481016963655  0.5955383630965657  1.0000
  O   O4        1.0  0.6141189778132342  0.15679626168815733  0.4044489026816009  1.0000
  O   O5        1.0  0.13686266385248297  0.542399676153238  0.09568396817766  1.0000
  O   O6        1.0  0.8631689543437204  0.04239754839125001  0.9043233747873388  1.0000
  O   O7        1.0  0.13685914161482057  0.5424013003585914  0.9043163674096563  1.0000
  O   O8        1.0  0.8631674396852347  0.042398125154726116  0.09568023790615852  1.0000
  O   O9        1.0  0.28621651047703267  0.8733202195810676  0.3485530047543719  1.0000
  O   O10       1.0  0.713823215487139  0.3733058428069285  0.6514638952365956  1.0000
  O   O11       1.0  0.2862136159021702  0.873320415531076  0.6514460462923142  1.0000
  O   O12       1.0  0.713817295705077  0.3733111496064154  0.3485372985422188  1.0000
  O   O13       1.0  0.24553320259892797  0.3271953170647564  0.14890437624543307  1.0000
  O   O14       1.0  0.754440331402492  0.8271891192400462  0.8510628396099662  1.0000
  O   O15       1.0  0.24552855242468039  0.32719026796860373  0.8510971208509945  1.0000
  O   O16       1.0  0.7544361664464959  0.8271941676081698  0.14894123194846293  1.0000
  O   O17       1.0  0.6865931665140791  0.5299903881647553  0.5000013157184  1.0000
  O   O18       1.0  0.313278137713219  0.029978128141024695  0.4999999813115609  1.0000
  O   O19       1.0  0.8457909767268391  0.6812480728425925  5.431775278e-07  1.0000
  O   O20       1.0  0.15419878939617598  0.1812529920297196  1.3328131274000001e-06  1.0000
