data_image0
_chemical_formula_structural       Zn2H45C56I3N8O12
_chemical_formula_sum              "Zn2 H45 C56 I3 N8 O12"
_cell_length_a       14.615309745092636
_cell_length_b       16.01021904396409
_cell_length_c       23.76072226814306
_cell_angle_alpha    89.82171420244117
_cell_angle_beta     90.14339584039094
_cell_angle_gamma    89.8185026249612

_space_group_name_H-M_alt    "P 1"
_space_group_IT_number       1

loop_
  _space_group_symop_operation_xyz
  'x, y, z'

loop_
  _atom_site_type_symbol
  _atom_site_label
  _atom_site_symmetry_multiplicity
  _atom_site_fract_x
  _atom_site_fract_y
  _atom_site_fract_z
  _atom_site_occupancy
  Zn  Zn1       1.0  0.40396540218031146  0.5017142919790274  0.4981659354146685  1.0000
  Zn  Zn2       1.0  0.5948610671226077  0.5011562231642441  0.5002457058415856  1.0000
  H   H1        1.0  0.35684364488889025  0.4869964241818537  0.31933363326113806  1.0000
  H   H2        1.0  0.6479560942843391  0.5178176344109175  0.32154257540275916  1.0000
  H   H3        1.0  0.6494511787528409  0.5210157621334233  0.21565558759920114  1.0000
  H   H4        1.0  0.42412829903631877  0.07608048668354431  0.4266673914596593  1.0000
  H   H5        1.0  0.5998548300878355  0.0731633860780718  0.4388314873285493  1.0000
  H   H6        1.0  0.43330958818697946  0.9299362939381127  0.42543787092709096  1.0000
  H   H7        1.0  0.5975054540562467  0.9272818355410093  0.4394312631102365  1.0000
  H   H8        1.0  0.6486971226281709  0.9265815475601046  0.5060714770882839  1.0000
  H   H9        1.0  0.3561697786609272  0.9271347308879924  0.4828635939318885  1.0000
  H   H10       1.0  0.6470929443215779  0.0736974237894685  0.507249796533209  1.0000
  H   H11       1.0  0.3547052291687436  0.0728215552482894  0.4874212284745737  1.0000
  H   H12       1.0  0.42424845139836254  0.07732229503964311  0.5834764216476742  1.0000
  H   H13       1.0  0.5437677805334501  0.0719246664435573  0.5922883310084328  1.0000
  H   H14       1.0  0.0779383678803569  0.6284417260729568  0.5159350331137701  1.0000
  H   H15       1.0  0.918506852308944  0.6283093970428624  0.5201594963957985  1.0000
  H   H16       1.0  0.46171869888726025  0.712502159867242  0.9435991171147932  1.0000
  H   H17       1.0  0.9175775584036712  0.4513093389817938  0.4155603333311788  1.0000
  H   H18       1.0  0.07762960477647599  0.4466911829632706  0.4163409205635489  1.0000
  H   H19       1.0  0.9202130714879927  0.5607960924007145  0.4219194682832565  1.0000
  H   H20       1.0  0.08001057163876617  0.5562795474771249  0.42020796316134573  1.0000
  H   H21       1.0  0.9222763935597199  0.41240610914311293  0.5733969987812698  1.0000
  H   H22       1.0  0.07527847269540192  0.4146381537140016  0.5745042545842267  1.0000
  H   H23       1.0  0.921847665321273  0.5634688292110823  0.5803710608141371  1.0000
  H   H24       1.0  0.08139142363896208  0.5681983913829071  0.5782860676813613  1.0000
  H   H25       1.0  0.5520782637809134  0.30089352203479786  0.9478725546280342  1.0000
  H   H26       1.0  0.5490910401431534  0.30249022767031875  0.054518100411378584  1.0000
  H   H27       1.0  0.3823191541417754  0.4273179608159979  0.787736850676971  1.0000
  H   H28       1.0  0.6198237337196627  0.5720128773303658  0.6754190705331169  1.0000
  H   H29       1.0  0.6248500013001816  0.5787323373511625  0.7806077507635931  1.0000
  H   H30       1.0  0.3998587912578058  0.8594969881677202  0.5943609561921972  1.0000
  H   H31       1.0  0.2885075845738854  0.9217393138097165  0.6444998386592073  1.0000
  H   H32       1.0  0.30758011761273696  0.020384831576684807  0.6135653945410836  1.0000
  H   H33       1.0  0.3811986462489186  0.9841036499402736  0.6682020661171959  1.0000
  H   H34       1.0  0.6197159083876965  0.9284914452995139  0.58608668030476  1.0000
  H   H35       1.0  0.6210765297713648  0.9099108105164291  0.6816993509738081  1.0000
  H   H36       1.0  0.5005772239371494  0.9032254343463462  0.6840441923511235  1.0000
  H   H37       1.0  0.5536962440391376  0.0021640715346933014  0.6730108347293677  1.0000
  H   H38       1.0  0.9152678382186891  0.32770150621930577  0.4641814528886953  1.0000
  H   H39       1.0  0.8152470102784475  0.23686124010077947  0.5124024868527356  1.0000
  H   H40       1.0  0.7595504253328825  0.3349667129572112  0.5202363269565495  1.0000
  H   H41       1.0  0.8307919068341788  0.2945012554885976  0.5750558229485278  1.0000
  H   H42       1.0  0.10054433295567115  0.33434315425720473  0.46556650142677103  1.0000
  H   H43       1.0  0.18988168779731038  0.2393150303816824  0.518548116485995  1.0000
  H   H44       1.0  0.15727596372475006  0.2900331293539793  0.5813898449343923  1.0000
  H   H45       1.0  0.23815077278687363  0.33799393913638914  0.5351685983504524  1.0000
  C   C1        1.0  0.49764970463187536  0.6628877061182408  0.49943651494052677  1.0000
  C   C2        1.0  0.47597959267670825  0.6587242379418328  0.027443811318455892  1.0000
  C   C3        1.0  0.4747992493378205  0.6559777207834685  0.9680073045753584  1.0000
  C   C4        1.0  0.4902483577088717  0.5821337736408978  0.9395534091002912  1.0000
  C   C5        1.0  0.5070165665970876  0.5073997929554748  0.969833870938089  1.0000
  C   C6        1.0  0.5236765809047768  0.4316587803277159  0.9411186502827885  1.0000
  C   C7        1.0  0.5392827323168702  0.358296970728503  0.9711166397318464  1.0000
  C   C8        1.0  0.5379280514216446  0.3592907472169528  0.030022814816305792  1.0000
  C   C9        1.0  0.48789665813185923  0.5825972843823879  0.8770232309488147  1.0000
  C   C10       1.0  0.5250336722665168  0.42943317983014145  0.8787148742271141  1.0000
  C   C11       1.0  0.43330081340877047  0.4604021539160498  0.7629851821050763  1.0000
  C   C12       1.0  0.49884473691977144  0.5011270738350645  0.6089199241820749  1.0000
  C   C13       1.0  0.42998181567677557  0.4588521329058608  0.7042699534537249  1.0000
  C   C14       1.0  0.4971364724223121  0.4994176446921515  0.672229487453954  1.0000
  C   C15       1.0  0.5674187312576038  0.5415185166193907  0.7006613057813167  1.0000
  C   C16       1.0  0.5706927006999364  0.5447965521846  0.7590693531094316  1.0000
  C   C17       1.0  0.5032538277784367  0.503847232896554  0.7898680206565486  1.0000
  C   C18       1.0  0.4212559163743421  0.49693992178319485  0.23745411303460873  1.0000
  C   C19       1.0  0.42032721779490584  0.49458800217679066  0.29605616954141567  1.0000
  C   C20       1.0  0.5023311856172796  0.5020277376793983  0.3261522095963798  1.0000
  C   C21       1.0  0.5850088566757703  0.5118568447346875  0.29731570447231087  1.0000
  C   C22       1.0  0.5856577367898125  0.5137939130462996  0.23882200535145864  1.0000
  C   C23       1.0  0.49971765629892667  0.33924146328803323  0.5025541891039964  1.0000
  C   C24       1.0  0.5040934404307577  0.506377154332  0.20865707276463744  1.0000
  C   C25       1.0  0.42105796189635913  0.9532636064941473  0.4681959897558483  1.0000
  C   C26       1.0  0.5905318607949255  0.9522763189195089  0.4822223751019194  1.0000
  C   C27       1.0  0.5906977348061133  0.04870641977426259  0.4816953045679852  1.0000
  C   C28       1.0  0.4190142862486325  0.0496149805182711  0.46924859001113356  1.0000
  C   C29       1.0  0.49954696792389786  0.24904115921251696  0.5046549166008062  1.0000
  C   C30       1.0  0.4989466370534003  0.9192393767465248  0.5062977446732759  1.0000
  C   C31       1.0  0.49928507106280035  0.08244601560301132  0.5054525551618454  1.0000
  C   C32       1.0  0.48673716591222405  0.0494360620691054  0.5662133894141306  1.0000
  C   C33       1.0  0.48392883047542057  0.9520474450642668  0.5685428141734974  1.0000
  C   C34       1.0  0.49939094002341006  0.17312878065688855  0.5054999843175665  1.0000
  C   C35       1.0  0.4985286939445641  0.8286063019037259  0.5054113953706789  1.0000
  C   C36       1.0  0.5010430879541374  0.4997863573850051  0.3894883739854008  1.0000
  C   C37       1.0  0.497227899898263  0.7529337083328544  0.5019306958892996  1.0000
  C   C38       1.0  0.9470049588813152  0.5697829909546002  0.5370478444887252  1.0000
  C   C39       1.0  0.05257690117839789  0.5708162025528551  0.5355885722572893  1.0000
  C   C40       1.0  0.9462277817683994  0.5025290400195317  0.44060390750411926  1.0000
  C   C41       1.0  0.051740868335677696  0.5002530730264924  0.4403796218720684  1.0000
  C   C42       1.0  0.9114310003973072  0.4954605297496499  0.5018528652771507  1.0000
  C   C43       1.0  0.08746553629863738  0.4948214134806718  0.5016856585003282  1.0000
  C   C44       1.0  0.05474823497537779  0.4109827337023688  0.5300087562638254  1.0000
  C   C45       1.0  0.9446498513730218  0.41021928416706993  0.5292147227823847  1.0000
  C   C46       1.0  0.18641649420339226  0.49676038830795477  0.5006092668801614  1.0000
  C   C47       1.0  0.8125812814670039  0.4981213633585853  0.5014173024502283  1.0000
  C   C48       1.0  0.5209527287250281  0.43028102317142464  0.1213267013836372  1.0000
  C   C49       1.0  0.49377809818913204  0.5855199912191152  0.12155520829192307  1.0000
  C   C50       1.0  0.4917800929835677  0.5860044512340608  0.05902765757081599  1.0000
  C   C51       1.0  0.5068700794125859  0.5093036108276793  0.029845424616226496  1.0000
  C   C52       1.0  0.5221601346885194  0.43317031309761944  0.05915753887739328  1.0000
  C   C53       1.0  0.34240960163851497  0.9646159993949792  0.6305084760410933  1.0000
  C   C54       1.0  0.557773882208309  0.9345938625472173  0.662945500897514  1.0000
  C   C55       1.0  0.8233221321671633  0.30032710835018145  0.5291132355050151  1.0000
  C   C56       1.0  0.17487255545646718  0.3006708661863372  0.5369445817469154  1.0000
  I   I1        1.0  0.4521029488366393  0.77801975252941  0.060721449296593684  1.0000
  I   I2        1.0  0.32430899316924666  0.38760475737601746  0.6675211204054675  1.0000
  I   I3        1.0  0.2972367440530022  0.4862339602443129  0.19291334428292117  1.0000
  N   N1        1.0  0.506841401729801  0.507357700544745  0.14809786494527793  1.0000
  N   N2        1.0  0.5054433712078604  0.5054250407105985  0.8505874341058542  1.0000
  N   N3        1.0  0.26546578341017824  0.5003758058853548  0.4989540296681341  1.0000
  N   N4        1.0  0.7334411500468361  0.5019805280248447  0.5008914586516936  1.0000
  N   N5        1.0  0.39494487416811797  0.9220798835931703  0.587090123700932  1.0000
  N   N6        1.0  0.557616059080189  0.9148268904150072  0.6031518030593331  1.0000
  N   N7        1.0  0.9069201660046954  0.3359510081875571  0.5061121108000178  1.0000
  N   N8        1.0  0.095510844949132  0.33641261316149235  0.5081355182329972  1.0000
  O   O1        1.0  0.42175746213786164  0.627452460137242  0.4882056832923495  1.0000
  O   O2        1.0  0.5741360158382489  0.6267967520158564  0.5088320818618399  1.0000
  O   O3        1.0  0.42397007474773557  0.5170310954833538  0.5839142960285314  1.0000
  O   O4        1.0  0.5762522634153979  0.48804130372069926  0.5862859560679536  1.0000
  O   O5        1.0  0.42298201714526573  0.3756034604312504  0.5099689370382732  1.0000
  O   O6        1.0  0.576529513868017  0.3741928849501762  0.4933089252805089  1.0000
  O   O7        1.0  0.42439669219808  0.4858480992536585  0.4129211913606665  1.0000
  O   O8        1.0  0.5769999003743607  0.5122284042907596  0.41431267369994623  1.0000
  O   O9        1.0  0.5315423454618298  0.36574444657228605  0.1487016648271364  1.0000
  O   O10       1.0  0.48478003214083276  0.6483147431518149  0.15057317251526564  1.0000
  O   O11       1.0  0.47146432846326275  0.6458375161707864  0.8494166037042843  1.0000
  O   O12       1.0  0.5419915402515301  0.365585741529216  0.8521795796435183  1.0000
