data_image0
_chemical_formula_structural       Al2H14C26O12F2
_chemical_formula_sum              "Al2 H14 C26 O12 F2"
_cell_length_a       6.613170305190357
_cell_length_b       11.189257352894877
_cell_length_c       15.224718363390085
_cell_angle_alpha    81.20944660644629
_cell_angle_beta     79.63333609222639
_cell_angle_gamma    71.60889857972877

_space_group_name_H-M_alt    "P 1"
_space_group_IT_number       1

loop_
  _space_group_symop_operation_xyz
  'x, y, z'

loop_
  _atom_site_type_symbol
  _atom_site_label
  _atom_site_symmetry_multiplicity
  _atom_site_fract_x
  _atom_site_fract_y
  _atom_site_fract_z
  _atom_site_occupancy
  Al  Al1       1.0  0.496651339075747  0.4952216474567522  0.5106748524068222  1.0000
  Al  Al2       1.0  0.9983063613655647  0.494785611969739  0.5088974909734318  1.0000
  H   H1        1.0  0.2314591977435398  0.42676685286376415  0.62054232143209  1.0000
  H   H2        1.0  0.7041941021734173  0.6336037934886534  0.43144777540176443  1.0000
  H   H3        1.0  0.8769099982907136  0.4159615750338189  0.957626083238246  1.0000
  H   H4        1.0  0.1326396071712068  0.5307204421190974  0.0637198071811227  1.0000
  H   H5        1.0  0.7119068034412733  0.44852414481459124  0.2502939023374324  1.0000
  H   H6        1.0  0.805438532031012  0.45935337214793026  0.08621216316780791  1.0000
  H   H7        1.0  0.2890030174596277  0.5844258183840338  0.7704102597011228  1.0000
  H   H8        1.0  0.19978000969085505  0.5877122709481453  0.9339907137817676  1.0000
  H   H9        1.0  0.233296496733047  0.2401484246005977  0.3816692734009237  1.0000
  H   H10       1.0  0.56440331226117  0.13276620639063447  0.28745100664138323  1.0000
  H   H11       1.0  0.4285704254708521  0.777921169237558  0.3676409523067647  1.0000
  H   H12       1.0  0.6627334682877829  0.8984611790592821  0.27981996680835414  1.0000
  H   H13       1.0  0.7658434524196452  0.7852788812763404  0.5524837430561718  1.0000
  H   H14       1.0  0.5683656259596007  0.21139327952295867  0.5558176120450398  1.0000
  C   C1        1.0  0.8790665483216743  0.2682735888103451  0.5018348812740854  1.0000
  C   C2        1.0  0.6701330784561678  0.5026549668699756  0.6709614248159923  1.0000
  C   C3        1.0  0.1246048627540547  0.7276858695250537  0.49485588955664644  1.0000
  C   C4        1.0  0.3283354255315415  0.4867632307262823  0.3501040998513076  1.0000
  C   C5        1.0  0.6289513817743072  0.504173852778706  0.7702451339003389  1.0000
  C   C6        1.0  0.37362498296371155  0.48724401152532676  0.25071903879882024  1.0000
  C   C7        1.0  0.7894698786738202  0.4601475855082596  0.8264088356613186  1.0000
  C   C8        1.0  0.7430147716181423  0.4567283893334703  0.9191603836505705  1.0000
  C   C9        1.0  0.21581956260161664  0.5112920972212719  0.1945044784435765  1.0000
  C   C10       1.0  0.264939274857575  0.5138335673653599  0.10189036357481741  1.0000
  C   C11       1.0  0.58692582879263  0.46670511131000564  0.2080180228653745  1.0000
  C   C12       1.0  0.6383041977269955  0.4719059823864241  0.11540181183494981  1.0000
  C   C13       1.0  0.41611226884585756  0.5491089650225901  0.8127535758611159  1.0000
  C   C14       1.0  0.3671062358034688  0.5490915760918255  0.9051654884817708  1.0000
  C   C15       1.0  0.5295324061762371  0.5009061517339716  0.9609008162354016  1.0000
  C   C16       1.0  0.47812836303365464  0.49541515537767805  0.05981710103603177  1.0000
  C   C17       1.0  0.937966305232962  0.13463923203384096  0.4848085643465794  1.0000
  C   C18       1.0  0.14069164889301794  0.07126963815016296  0.43339412294816526  1.0000
  C   C19       1.0  0.7902310745715654  0.06731324608384169  0.5213721248632694  1.0000
  C   C20       1.0  0.2775878820337637  0.13839359386920339  0.3806201877459117  1.0000
  C   C21       1.0  0.46364427515937473  0.07778999470554741  0.3273930690930982  1.0000
  C   C22       1.0  0.057932129784411764  0.8669526430991465  0.4807845571115266  1.0000
  C   C23       1.0  0.8518197232796821  0.9321113386438139  0.5200095323340362  1.0000
  C   C24       1.0  0.19969545542311823  0.9369608557598352  0.43061851157877135  1.0000
  C   C25       1.0  0.3888164361052092  0.8784499266261886  0.37367888319521814  1.0000
  C   C26       1.0  0.5193093135233156  0.9466865787479007  0.3234122530264969  1.0000
  O   O1        1.0  0.6770547460863201  0.32407801907972095  0.5282416755646722  1.0000
  O   O2        1.0  0.8628025364654875  0.48430749191248873  0.6318943801187515  1.0000
  O   O3        1.0  0.9743691435849087  0.6721708861883612  0.5164612206009096  1.0000
  O   O4        1.0  0.49026898947672504  0.46417159122096036  0.39106117930853657  1.0000
  O   O5        1.0  0.3236549904009181  0.6665836108223003  0.4876614091483518  1.0000
  O   O6        1.0  0.13374177761803452  0.5108901145899336  0.38760657150307043  1.0000
  O   O7        1.0  0.021433391052894987  0.3245441489109808  0.49437848240856397  1.0000
  O   O8        1.0  0.5058764472368227  0.5193155782490277  0.6323423783191089  1.0000
  O   O9        1.0  0.25780362352966785  0.4389106420001241  0.5553765049346422  1.0000
  O   O10       1.0  0.7335062511035203  0.553091497935945  0.46830849872675634  1.0000
  O   O11       1.0  0.7026589229978627  0.87711955735714  0.5619565282617316  1.0000
  O   O12       1.0  0.5915154828613467  0.1175213050361847  0.5629118681146892  1.0000
  F   F1        1.0  0.0005131130782416234  0.4145285451134199  0.7919378105929128  1.0000
  F   F2        1.0  0.0045229735651517305  0.5340064281503415  0.22878398248271745  1.0000
