data_image0
_chemical_formula_structural       Zn2H20C22N8Cl4O2
_chemical_formula_sum              "Zn2 H20 C22 N8 Cl4 O2"
_cell_length_a       9.317009800377749
_cell_length_b       9.316999197192446
_cell_length_c       10.345554578123854
_cell_angle_alpha    104.37603948738332
_cell_angle_beta     104.37581399261407
_cell_angle_gamma    116.64191797573135

_space_group_name_H-M_alt    "P 1"
_space_group_IT_number       1

loop_
  _space_group_symop_operation_xyz
  'x, y, z'

loop_
  _atom_site_type_symbol
  _atom_site_label
  _atom_site_symmetry_multiplicity
  _atom_site_fract_x
  _atom_site_fract_y
  _atom_site_fract_z
  _atom_site_occupancy
  Zn  Zn1       1.0  0.4587799197112759  0.5412182575823508  0.4999998618943947  1.0000
  Zn  Zn2       1.0  0.20870601500384112  0.7912922756848176  0.9999986426696377  1.0000
  H   H1        1.0  0.5206959660298266  0.7496486438249262  0.8035848182009884  1.0000
  H   H2        1.0  0.2503502277369307  0.47930517867683153  0.19641305826259262  1.0000
  H   H3        1.0  0.3037101471267504  0.032775780252599404  0.3035472834883492  1.0000
  H   H4        1.0  0.9672250598338434  0.6962886422847134  0.6964497107666003  1.0000
  H   H5        1.0  0.5701897402195968  0.044881903343409114  0.9353609888839567  1.0000
  H   H6        1.0  0.9551174605272835  0.42981420011567206  0.06464125566178326  1.0000
  H   H7        1.0  0.14017615509739303  0.11496445627568623  0.43536828418971385  1.0000
  H   H8        1.0  0.8850355733620816  0.8598231498460154  0.5646319349944875  1.0000
  H   H9        1.0  0.6283984861332  0.25601600862191287  0.8174051605011738  1.0000
  H   H10       1.0  0.7439860420920182  0.3716061205179102  0.1825980776881266  1.0000
  H   H11       1.0  0.8111614122146875  0.9389839372543136  0.3173777288871803  1.0000
  H   H12       1.0  0.061015215294453626  0.18883729714123382  0.6826243375832275  1.0000
  H   H13       1.0  0.5743764564933259  0.8633092429381224  0.44816029800116297  1.0000
  H   H14       1.0  0.1366918495278924  0.4256238043481986  0.551839906276214  1.0000
  H   H15       1.0  0.8347280290450596  0.6238475244215705  0.9481277068160661  1.0000
  H   H16       1.0  0.3761530964766208  0.1652682933485892  0.051869748613100265  1.0000
  H   H17       1.0  0.6163166275616092  0.2862778395027307  0.5835889427590286  1.0000
  H   H18       1.0  0.713723376129721  0.38368408982798746  0.4164123392052729  1.0000
  H   H19       1.0  0.5471276536972383  0.7172822129766203  0.08353563602722858  1.0000
  H   H20       1.0  0.2827186439011058  0.45287228866850177  0.9164642552249658  1.0000
  C   C1        1.0  0.5450668783807303  0.8458862364357955  0.7560333961871918  1.0000
  C   C2        1.0  0.15411378938978967  0.45493371881754285  0.2439656970190355  1.0000
  C   C3        1.0  0.1599390273687717  0.9609221429264851  0.25597992672505393  1.0000
  C   C4        1.0  0.03907853861126404  0.8400588827492188  0.7440166082946147  1.0000
  C   C5        1.0  0.572604661186837  0.009417791978336303  0.8276906239027964  1.0000
  C   C6        1.0  0.9905824296317932  0.42739690004356135  0.1723112199588357  1.0000
  C   C7        1.0  0.06801029587543889  0.00501116359154  0.32764344203833656  1.0000
  C   C8        1.0  0.9949903037446576  0.9319869065655625  0.6723556016551481  1.0000
  C   C9        1.0  0.6057707720569638  0.12721766401740103  0.7616432214437479  1.0000
  C   C10       1.0  0.8727840399923679  0.394232049566007  0.23835937080008304  1.0000
  C   C11       1.0  0.8842125123546296  0.905948734968824  0.26156092961254257  1.0000
  C   C12       1.0  0.09405019874845517  0.11578408104755059  0.7384385124177013  1.0000
  C   C13       1.0  0.6113150640682435  0.07826258799565272  0.6246835393049252  1.0000
  C   C14       1.0  0.9217379121281936  0.3886860843171577  0.3753173558670041  1.0000
  C   C15       1.0  0.7962325782854692  0.7634640292343919  0.12459783893051941  1.0000
  C   C16       1.0  0.23653757480107632  0.2037664624698152  0.8754026613696337  1.0000
  C   C17       1.0  0.5771950166278899  0.909436948075026  0.5568830134588936  1.0000
  C   C18       1.0  0.09056608418732284  0.42280714770189587  0.4431190862469163  1.0000
  C   C19       1.0  0.8972745771026422  0.729755696602126  0.056809950524019805  1.0000
  C   C20       1.0  0.27024312978338116  0.1027249717372669  0.9431878943078755  1.0000
  C   C21       1.0  0.7742388442250528  0.22576037222408732  0.5000005588787387  1.0000
  C   C22       1.0  0.5241495687533869  0.4758513763496808  8.655655393989243e-08  1.0000
  N   N1        1.0  0.5455471322646446  0.7972123035484274  0.6219386194418417  1.0000
  N   N2        1.0  0.2027889033584671  0.4544548870144069  0.3780609779561387  1.0000
  N   N3        1.0  0.0745423821636919  0.8263985223594261  0.1218815644949699  1.0000
  N   N4        1.0  0.17360010414365235  0.9254533369064293  0.8781149089116621  1.0000
  N   N5        1.0  0.6489728561384424  0.19464980010329214  0.5563633721322531  1.0000
  N   N6        1.0  0.8053520567096157  0.3510278363503048  0.44363881649335457  1.0000
  N   N7        1.0  0.6115662845121647  0.657436450463642  0.05631912644800964  1.0000
  N   N8        1.0  0.3425630983449466  0.3884324345032227  0.9436800006024624  1.0000
  Cl  Cl1       1.0  0.47116806809513895  0.4090554687318574  0.6519178124233631  1.0000
  Cl  Cl2       1.0  0.5909406516333249  0.528833756458617  0.34808010391093086  1.0000
  Cl  Cl3       1.0  0.49271016249588223  0.9307777609391792  0.15195165639244115  1.0000
  Cl  Cl4       1.0  0.06921705885534378  0.507285638334821  0.8480454173402021  1.0000
  O   O1        1.0  0.8523159744319456  0.14767975110269302  0.4999996535452593  1.0000
  O   O2        1.0  0.6022511978355354  0.3977484508875264  1.605387467435817e-06  1.0000
