data_image0
_chemical_formula_structural       Cd4H12C8N12
_chemical_formula_sum              "Cd4 H12 C8 N12"
_cell_length_a       8.635634836159143
_cell_length_b       8.635716859653886
_cell_length_c       14.920082014814719
_cell_angle_alpha    91.0758604462743
_cell_angle_beta     91.07722781812635
_cell_angle_gamma    90.48358944035907

_space_group_name_H-M_alt    "P 1"
_space_group_IT_number       1

loop_
  _space_group_symop_operation_xyz
  'x, y, z'

loop_
  _atom_site_type_symbol
  _atom_site_label
  _atom_site_symmetry_multiplicity
  _atom_site_fract_x
  _atom_site_fract_y
  _atom_site_fract_z
  _atom_site_occupancy
  Cd  Cd1       1.0  0.509077915460331  0.49094324680255136  0.7500025687298899  1.0000
  Cd  Cd2       1.0  0.490930597987024  0.5090551399144798  0.2499966534912588  1.0000
  Cd  Cd3       1.0  0.4999907912781793  4.165348393299884e-06  0.9999994028690153  1.0000
  Cd  Cd4       1.0  5.39731523470429e-06  0.4999985125182675  0.5000015076380038  1.0000
  H   H1        1.0  0.1856187598857488  0.09187664896343509  0.9531003026624276  1.0000
  H   H2        1.0  0.9081220994015877  0.8143741939733856  0.5468982004131461  1.0000
  H   H3        1.0  0.8143781965118818  0.9081240610743251  0.046899507052849294  1.0000
  H   H4        1.0  0.09187712487153021  0.18562072820879646  0.45310224804779853  1.0000
  H   H5        1.0  0.1879381816050412  0.8995753707000913  0.9490280931539061  1.0000
  H   H6        1.0  0.10042651876212012  0.8120594924782337  0.550972968710319  1.0000
  H   H7        1.0  0.8120575995317479  0.10042302705610949  0.050972355573712505  1.0000
  H   H8        1.0  0.8995727578908941  0.1879412208237028  0.449027532068868  1.0000
  H   H9        1.0  0.17129169564991997  0.9923992379767058  0.046727083646004496  1.0000
  H   H10       1.0  0.007598205278100101  0.828710826518062  0.45327233462500516  1.0000
  H   H11       1.0  0.8287041103180428  0.0076014800930152985  0.9532740563233089  1.0000
  H   H12       1.0  0.9923999093076216  0.1712898832189822  0.5467274854650269  1.0000
  C   C1        1.0  0.5084048497035666  0.28477843902679467  0.8369809630554527  1.0000
  C   C2        1.0  0.7152268610791879  0.49160492343899864  0.6630152938738546  1.0000
  C   C3        1.0  0.49159908220968873  0.7152268866399752  0.1630162695053698  1.0000
  C   C4        1.0  0.2847770483261911  0.5083957886600601  0.33698524840435334  1.0000
  C   C5        1.0  0.30276592953515546  0.49059854705370026  0.658636337376798  1.0000
  C   C6        1.0  0.5093968239797421  0.6972405265961685  0.8413636655804024  1.0000
  C   C7        1.0  0.6972309903936846  0.5093998310736794  0.34136077015359945  1.0000
  C   C8        1.0  0.4906035689574395  0.3027555535092432  0.1586368037189487  1.0000
  N   N1        1.0  0.5086733556708367  0.18207074833203757  0.8869354066512187  1.0000
  N   N2        1.0  0.8179329815498306  0.49134388340728213  0.6130676454662946  1.0000
  N   N3        1.0  0.49132813259854646  0.8179183821289371  0.1130650102410016  1.0000
  N   N4        1.0  0.1820674808400113  0.508660300400173  0.38693222676419486  1.0000
  N   N5        1.0  0.4902627323457834  0.1988243939413721  0.1072941072357878  1.0000
  N   N6        1.0  0.8011743074582326  0.5097389322783031  0.39270360423032696  1.0000
  N   N7        1.0  0.509737759916071  0.8011809674181335  0.8927091270303364  1.0000
  N   N8        1.0  0.1988249040156234  0.4902571249341107  0.6072928328078858  1.0000
  N   N9        1.0  0.2218414357651497  0.9954066060901705  0.9855694167407448  1.0000
  N   N10       1.0  0.004593222527631705  0.7781584943386549  0.514429879260426  1.0000
  N   N11       1.0  0.7781589847207684  0.004592944821482101  0.0144304136351536  1.0000
  N   N12       1.0  0.9954060188182365  0.22183874042580948  0.4855699198134147  1.0000
