data_image0
_chemical_formula_structural       P4H40Pb2C48O8
_chemical_formula_sum              "P4 H40 Pb2 C48 O8"
_cell_length_a       8.60916028616863
_cell_length_b       10.891247157277332
_cell_length_c       12.167
_cell_angle_alpha    91.05441260848613
_cell_angle_beta     106.12344682878847
_cell_angle_gamma    96.34655177251337

_space_group_name_H-M_alt    "P 1"
_space_group_IT_number       1

loop_
  _space_group_symop_operation_xyz
  'x, y, z'

loop_
  _atom_site_type_symbol
  _atom_site_label
  _atom_site_symmetry_multiplicity
  _atom_site_fract_x
  _atom_site_fract_y
  _atom_site_fract_z
  _atom_site_occupancy
  P   P1        1.0  0.10253482764811389  0.9606197918708475  0.838652984565428  1.0000
  P   P2        1.0  0.8974692374644846  0.0393777085401155  0.16134867714490753  1.0000
  P   P3        1.0  0.06122219379427919  0.5594690991878436  0.17750149713738486  1.0000
  P   P4        1.0  0.9387785372863533  0.4405302513315803  0.8225003618024759  1.0000
  H   H1        1.0  0.6974678583599997  0.8769144095961392  0.3796349932803481  1.0000
  H   H2        1.0  0.3025281470391974  0.12309326641136659  0.6203693617792397  1.0000
  H   H3        1.0  0.7578087954277919  0.08819282035326377  0.4726858194490546  1.0000
  H   H4        1.0  0.2422098898149727  0.9118130055457883  0.5273188522764585  1.0000
  H   H5        1.0  0.9319200701037217  0.1235974209677124  0.6733167410402318  1.0000
  H   H6        1.0  0.0680904805365614  0.8764028546059492  0.3266870626935017  1.0000
  H   H7        1.0  0.3167964937421814  0.7610929945011122  0.2829025343871123  1.0000
  H   H8        1.0  0.6831981917723198  0.2389063560183118  0.7170907395336883  1.0000
  H   H9        1.0  0.49109681554887175  0.804950740685932  0.4837016288373306  1.0000
  H   H10       1.0  0.5088960742369935  0.1950449096165627  0.5162928750595412  1.0000
  H   H11       1.0  0.44600335850681455  0.6697993923627905  0.6381770239039639  1.0000
  H   H12       1.0  0.5539957234990284  0.33019718299393463  0.36181953390519794  1.0000
  H   H13       1.0  0.2199375769895298  0.4993239231433648  0.5938208332216561  1.0000
  H   H14       1.0  0.7800622741679745  0.5006698770506688  0.4061774738037158  1.0000
  H   H15       1.0  0.04569972963083298  0.4551433330316427  0.393485670839091  1.0000
  H   H16       1.0  0.9542953958452357  0.54485879265048  0.606513488515418  1.0000
  H   H17       1.0  0.29687254749978104  0.8155546373452864  0.730553591684739  1.0000
  H   H18       1.0  0.7031378923690424  0.1844373127402861  0.2694582720941838  1.0000
  H   H19       1.0  0.8510218627935584  0.7179207135020675  0.2498582329781129  1.0000
  H   H20       1.0  0.14897633928915607  0.28207031152926726  0.7501503889270751  1.0000
  H   H21       1.0  0.5592840100409973  0.6852514982511124  0.2461339405186038  1.0000
  H   H22       1.0  0.44071496119337883  0.3147367516175308  0.7538739649169132  1.0000
  H   H23       1.0  0.3898517045305141  0.487257515743508  0.1663282396564227  1.0000
  H   H24       1.0  0.610145728400539  0.5127362844505257  0.8336646608126229  1.0000
  H   H25       1.0  0.5148277441585236  0.31943602711517366  0.09098689068370899  1.0000
  H   H26       1.0  0.4851749293046055  0.68056794867541  0.9089989882204179  1.0000
  H   H27       1.0  0.8068022285429065  0.3489989102556804  0.0984806559104854  1.0000
  H   H28       1.0  0.1931992358069934  0.6510050655349033  0.9015107386683782  1.0000
  H   H29       1.0  0.5850328765869364  0.8523819713682739  0.7251729376234765  1.0000
  H   H30       1.0  0.4149772340917863  0.1476155290426888  0.2748315558388796  1.0000
  H   H31       1.0  0.7644118828474616  0.0403203388023385  0.8267428806265186  1.0000
  H   H32       1.0  0.2355921463827499  0.9596845620424758  0.17325807404068166  1.0000
  H   H33       1.0  0.6533422986581172  0.1931503985497969  0.9265301408827539  1.0000
  H   H34       1.0  0.3466586898478283  0.8068582025119468  0.07346781154393509  1.0000
  H   H35       1.0  0.3626216002173095  0.1597355895879957  0.9278935785266995  1.0000
  H   H36       1.0  0.6373766767544848  0.8402711613652867  0.07210298870899827  1.0000
  H   H37       1.0  0.9798849057712643  0.7344440321908365  0.6913237841770156  1.0000
  H   H38       1.0  0.020109779743236793  0.2655553183285875  0.3086735992202421  1.0000
  H   H39       1.0  0.805182449617341  0.6990551574983286  0.4896506777239154  1.0000
  H   H40       1.0  0.1948013179957471  0.3009515934549469  0.5103512573572219  1.0000
  Pb  Pb1       1.0  0.8867525465209666  0.7490238119385565  0.9705190128988265  1.0000
  Pb  Pb2       1.0  0.11325012694216241  0.2509801638520273  0.0294800163299485  1.0000
  C   C1        1.0  0.31089277272524635  0.9853224400773681  0.8305186489806643  1.0000
  C   C2        1.0  0.6891141505753637  0.014677835496286196  0.16948526387148627  1.0000
  C   C3        1.0  0.7731828019258058  0.8917578297999283  0.4680788621484026  1.0000
  C   C4        1.0  0.2268166841592105  0.10824892115335419  0.5319220521560482  1.0000
  C   C5        1.0  0.8072665351750814  0.0107593057702999  0.5199740476388328  1.0000
  C   C6        1.0  0.1927340133693036  0.989246520128745  0.4800303477835115  1.0000
  C   C7        1.0  0.906149436794621  0.0309042117766438  0.6322745118965543  1.0000
  C   C8        1.0  0.09385506827954519  0.9690960637970107  0.36773139145689265  1.0000
  C   C9        1.0  0.1735047845826827  0.6032741172814511  0.3247266225210979  1.0000
  C   C10       1.0  0.8264873360515138  0.3967243081837423  0.675272707321902  1.0000
  C   C11       1.0  0.2975129883116594  0.702920034078879  0.3510546978374478  1.0000
  C   C12       1.0  0.702482906316071  0.29707931644054497  0.6489429231520987  1.0000
  C   C13       1.0  0.39457392226437094  0.7275505280553176  0.4637696426378001  1.0000
  C   C14       1.0  0.6054200299808629  0.2724441971929465  0.5362266985863897  1.0000
  C   C15       1.0  0.36825625576078375  0.6531049386411354  0.5505468697311784  1.0000
  C   C16       1.0  0.6317390522515325  0.3468907116613593  0.44944728745498  1.0000
  C   C17       1.0  0.2414623319412925  0.555999220764285  0.525395659765195  1.0000
  C   C18       1.0  0.7585305219621787  0.4440038299720612  0.4745997808791316  1.0000
  C   C19       1.0  0.14451667871217916  0.5311272876333389  0.4129714380265952  1.0000
  C   C20       1.0  0.8554789226078441  0.4688702127776167  0.5870277386424192  1.0000
  C   C21       1.0  0.8479492887039867  0.5353649610693054  0.1738506855723614  1.0000
  C   C22       1.0  0.15204810834467247  0.4646362395585796  0.826147261120582  1.0000
  C   C23       1.0  0.3743807288005527  0.8985440276445615  0.7735577583824664  1.0000
  C   C24       1.0  0.625631506796914  0.10145162265794028  0.2264512316298095  1.0000
  C   C25       1.0  0.7772735908612347  0.6303449043214328  0.21507960238649557  1.0000
  C   C26       1.0  0.22272490452919408  0.36964797081837014  0.784921710572192  1.0000
  C   C27       1.0  0.6134197922832955  0.6123100470178713  0.212851338458762  1.0000
  C   C28       1.0  0.386578849760987  0.3876837531761623  0.7871500185554722  1.0000
  C   C29       1.0  0.5180757923802517  0.500619924122148  0.16814875564763554  1.0000
  C   C30       1.0  0.48192134724309443  0.4993720259634244  0.8318473442914538  1.0000
  C   C31       1.0  0.5879037428891181  0.406950782716514  0.1261756858212664  1.0000
  C   C32       1.0  0.4120953391167248  0.5930457926402183  0.8738134749302802  1.0000
  C   C33       1.0  0.7523516994803501  0.42326503914888747  0.1295147978274471  1.0000
  C   C34       1.0  0.24765188978829403  0.5767370865332281  0.8704794495107607  1.0000
  C   C35       1.0  0.5365973462226279  0.9186759828916563  0.7713819849065473  1.0000
  C   C36       1.0  0.46341291110994826  0.0813224425735299  0.22862173071607836  1.0000
  C   C37       1.0  0.6371924913076796  0.024417731503120897  0.8269822768910586  1.0000
  C   C38       1.0  0.36281608106772006  0.9755853192332322  0.17302200572005688  1.0000
  C   C39       1.0  0.5743364879970514  0.1110943879704323  0.8834278800995747  1.0000
  C   C40       1.0  0.4256687503463822  0.888910512874382  0.1165716683693319  1.0000
  C   C41       1.0  0.411972329221669  0.0917478037661468  0.8844533829765882  1.0000
  C   C42       1.0  0.5880317000085427  0.9082570970786674  0.11554592790002972  1.0000
  C   C43       1.0  0.9711148636773431  0.9319218344370908  0.6939128211308017  1.0000
  C   C44       1.0  0.0288892014352555  0.0680756659738719  0.3060904843701096  1.0000
  C   C45       1.0  0.9337121893755622  0.8119682020885219  0.6420927685131517  1.0000
  C   C46       1.0  0.0662749481518858  0.18802929832244078  0.3579104982768726  1.0000
  C   C47       1.0  0.8352924967504122  0.7922663970592152  0.529411459406333  1.0000
  C   C48       1.0  0.16469823223432198  0.207738503785599  0.4705901693268473  1.0000
  O   O1        1.0  0.08907858926532695  0.8405209260078762  0.9021039744096555  1.0000
  O   O2        1.0  0.910922581776873  0.15948119967423927  0.09790048238274804  1.0000
  O   O3        1.0  0.060680550840658  0.07727440525508908  0.8881404025929243  1.0000
  O   O4        1.0  0.9393253100005835  0.922726795372796  0.11186085103662434  1.0000
  O   O5        1.0  0.08782684935834337  0.6710445153588224  0.1059464038667244  1.0000
  O   O6        1.0  0.9121672136583568  0.3289585353775307  0.8940550276369167  1.0000
  O   O7        1.0  0.8856461271586298  0.5613589849834496  0.854367369409978  1.0000
  O   O8        1.0  0.11434899831743907  0.4386431406986658  0.1456301461539482  1.0000
