data_image0
_chemical_formula_structural       U6P12H60C36O54
_chemical_formula_sum              "U6 P12 H60 C36 O54"
_cell_length_a       11.181857162032276
_cell_length_b       10.875949051546131
_cell_length_c       24.15217761828583
_cell_angle_alpha    90.02652169517746
_cell_angle_beta     89.99272699592923
_cell_angle_gamma    112.51410209546297

_space_group_name_H-M_alt    "P 1"
_space_group_IT_number       1

loop_
  _space_group_symop_operation_xyz
  'x, y, z'

loop_
  _atom_site_type_symbol
  _atom_site_label
  _atom_site_symmetry_multiplicity
  _atom_site_fract_x
  _atom_site_fract_y
  _atom_site_fract_z
  _atom_site_occupancy
  U   U1        1.0  0.11290349861083371  0.06163134993997939  0.7524471956585828  1.0000
  U   U2        1.0  0.8871438001909198  0.9384289745749828  0.2524048101892191  1.0000
  U   U3        1.0  0.3815432188616371  0.20916864325715784  0.9555716597001549  1.0000
  U   U4        1.0  0.6184272742201955  0.7907139546414614  0.45559856354410044  1.0000
  U   U5        1.0  0.6200379061535486  0.7861133945405996  0.0458999032890546  1.0000
  U   U6        1.0  0.3799555065201048  0.21392324638178203  0.5459094204239463  1.0000
  P   P1        1.0  0.34069187519936156  0.5131998322920027  0.9855862702631981  1.0000
  P   P2        1.0  0.6593524477600924  0.486802370458243  0.48563072519474565  1.0000
  P   P3        1.0  0.6621179139943864  0.48259115331387664  0.0163742914643521  1.0000
  P   P4        1.0  0.3377908802785897  0.5173327501739211  0.5163401423035126  1.0000
  P   P5        1.0  0.2567978278409058  0.9282074499360536  0.8570804363581744  1.0000
  P   P6        1.0  0.7430530805022145  0.07151265571149423  0.3571307162355879  1.0000
  P   P7        1.0  0.7457991694649023  0.0641847035343943  0.1434508725842321  1.0000
  P   P8        1.0  0.2543373192878139  0.9360480278975207  0.6434199734164849  1.0000
  P   P9        1.0  0.9394546828816818  0.827540593829362  0.1108534297773431  1.0000
  P   P10       1.0  0.0606185550545959  0.17267362585513982  0.6108580730590774  1.0000
  P   P11       1.0  0.067437960440472  0.1679084379078546  0.8908792205027183  1.0000
  P   P12       1.0  0.9324656708478758  0.8319254349051807  0.39085215072629603  1.0000
  H   H1        1.0  0.9205520704647655  0.19492930851919257  0.7251422047982388  1.0000
  H   H2        1.0  0.07939785411705463  0.8048846707520738  0.22505010662402472  1.0000
  H   H3        1.0  0.8273442705128815  0.05672036084584421  0.7460751028219121  1.0000
  H   H4        1.0  0.17266897647568416  0.9431837895257191  0.24590930866170876  1.0000
  H   H5        1.0  0.6506494947346156  0.19082182484095972  0.9590649939508467  1.0000
  H   H6        1.0  0.3493010564409644  0.809077856433497  0.4590855551492581  1.0000
  H   H7        1.0  0.3516876265898433  0.8060671133442558  0.0403684069704795  1.0000
  H   H8        1.0  0.6483676172443751  0.1940247237024054  0.5403843608737802  1.0000
  H   H9        1.0  0.5688013287955799  0.04011698922516874  0.9464507793154482  1.0000
  H   H10       1.0  0.43117763786523267  0.9597456103636975  0.4464610458369264  1.0000
  H   H11       1.0  0.43340339818980317  0.9573023082783865  0.0518287561786792  1.0000
  H   H12       1.0  0.5666283813454314  0.04280920696744062  0.5518316805711478  1.0000
  H   H13       1.0  0.3892280478664178  0.47358697068345657  0.9023939281074007  1.0000
  H   H14       1.0  0.6109471064443285  0.5263241755643834  0.4024264582820791  1.0000
  H   H15       1.0  0.6028158577864036  0.5212994443520318  0.09765445962104738  1.0000
  H   H16       1.0  0.39727550155201646  0.478838138192849  0.5975931665897818  1.0000
  H   H17       1.0  0.35052150735559456  0.787566780681175  0.8728245382770156  1.0000
  H   H18       1.0  0.6493992829347023  0.21222330221849725  0.3729146266990782  1.0000
  H   H19       1.0  0.651767039520003  0.20530816395530857  0.1305662087679664  1.0000
  H   H20       1.0  0.34832650190165293  0.7948856151214162  0.630495366672065  1.0000
  H   H21       1.0  0.8193385819447272  0.6463681414656224  0.1541458147133028  1.0000
  H   H22       1.0  0.1814713937914334  0.35475899718062465  0.6534689987502419  1.0000
  H   H23       1.0  0.1609918781884119  0.3180209751692829  0.8293066674689983  1.0000
  H   H24       1.0  0.838955754915972  0.6816292462234872  0.3292813304053368  1.0000
  H   H25       1.0  0.12619056572799542  0.5897242464038756  0.9004849350926847  1.0000
  H   H26       1.0  0.8737212099286823  0.41010436114226684  0.400592103206499  1.0000
  H   H27       1.0  0.8759084029925007  0.4015025444855525  0.1011724459277374  1.0000
  H   H28       1.0  0.12418139815324748  0.5987160456012649  0.6010815976718646  1.0000
  H   H29       1.0  0.0689775940200336  0.9224166387232632  0.9755715310358113  1.0000
  H   H30       1.0  0.9308519712773061  0.07742510262460914  0.4756004693174347  1.0000
  H   H31       1.0  0.9342697810607918  0.0725451744468515  0.023258349669269804  1.0000
  H   H32       1.0  0.0657300587841548  0.927523305262554  0.5232320817375182  1.0000
  H   H33       1.0  0.15149627579524608  0.639278092076019  0.0772734346275357  1.0000
  H   H34       1.0  0.8485499903854791  0.3607884210652302  0.5773753602980705  1.0000
  H   H35       1.0  0.8521150193541304  0.35955284297683937  0.9239989084365592  1.0000
  H   H36       1.0  0.14782287279845732  0.6403705906349517  0.4239099431265672  1.0000
  H   H37       1.0  0.12089562832317578  0.40666685822164805  0.9620979877641106  1.0000
  H   H38       1.0  0.8792330364080598  0.5933355776053661  0.4622859595934515  1.0000
  H   H39       1.0  0.8819576216675175  0.5878381076619448  0.0402429235979085  1.0000
  H   H40       1.0  0.1178633736643776  0.4121465437256832  0.5400639174748179  1.0000
  H   H41       1.0  0.14401960632570615  0.4312532332856591  0.0343692125762303  1.0000
  H   H42       1.0  0.855867433660002  0.5686582392127449  0.5345357467379301  1.0000
  H   H43       1.0  0.8584474885899385  0.5641280618981882  0.9679010158350038  1.0000
  H   H44       1.0  0.14162254048308406  0.4359593355969127  0.4677456965190316  1.0000
  H   H45       1.0  0.03428489458758593  0.8789524341339362  0.8748052805862088  1.0000
  H   H46       1.0  0.9655548128350873  0.12079486210495823  0.37484367470594293  1.0000
  H   H47       1.0  0.9671172702560185  0.1097394312278084  0.1240135710901455  1.0000
  H   H48       1.0  0.03300565312166287  0.8905016380450453  0.6239899728376344  1.0000
  H   H49       1.0  0.05757235593878112  0.7419658134810662  0.8433806403538213  1.0000
  H   H50       1.0  0.9422871900990162  0.25775216740521506  0.3434483010988529  1.0000
  H   H51       1.0  0.94782971890681  0.2470703390210575  0.1567328144543012  1.0000
  H   H52       1.0  0.05232748543446061  0.753217573766179  0.656678501863901  1.0000
  H   H53       1.0  0.13913702096009942  0.9724509558460287  0.0742673641670422  1.0000
  H   H54       1.0  0.8608115385742394  0.027579738286945602  0.5743505037569889  1.0000
  H   H55       1.0  0.8628143853409824  0.02728308336494932  0.9237317354890848  1.0000
  H   H56       1.0  0.13709205461084653  0.9726533041341414  0.4237129784015464  1.0000
  H   H57       1.0  0.15820257764575996  0.8488512347060823  0.1166088321384251  1.0000
  H   H58       1.0  0.8419000197226867  0.15135031049224784  0.6166912714447719  1.0000
  H   H59       1.0  0.8533786762550547  0.15655880804384031  0.8816576492809604  1.0000
  H   H60       1.0  0.14653900692676566  0.8433495672948654  0.38160375975193966  1.0000
  C   C1        1.0  0.1413632046352404  0.6014851528212193  0.9893763193093362  1.0000
  C   C2        1.0  0.8585975066810718  0.39844888388287103  0.4894830463024391  1.0000
  C   C3        1.0  0.8608090343335277  0.39315360303659486  0.0122309513767362  1.0000
  C   C4        1.0  0.13921305131140835  0.6069147705316669  0.512137249933062  1.0000
  C   C5        1.0  0.12100883998305532  0.6458095209678449  0.9373215924639524  1.0000
  C   C6        1.0  0.8789159417963363  0.3540554238168313  0.43741588991749586  1.0000
  C   C7        1.0  0.8808746333123025  0.34672727754472293  0.0638983103052055  1.0000
  C   C8        1.0  0.1192090673195097  0.653436173273079  0.563815448861206  1.0000
  C   C9        1.0  0.09578275908340576  0.7614998163332064  0.9320377651264663  1.0000
  C   C10       1.0  0.9040950181058278  0.23832946185670784  0.4321064668078947  1.0000
  C   C11       1.0  0.9063363580504102  0.23086512906014187  0.0682099395913127  1.0000
  C   C12       1.0  0.09375739404534765  0.7693081112691832  0.5681523160717177  1.0000
  C   C13       1.0  0.08722576903633686  0.8312965919250885  0.9796259294892169  1.0000
  C   C14       1.0  0.9126477583419189  0.16857471616396685  0.4796782589182413  1.0000
  C   C15       1.0  0.915389526145013  0.16343605623968224  0.0200233347435557  1.0000
  C   C16       1.0  0.08463603775274457  0.8366456275495936  0.5199786553186811  1.0000
  C   C17       1.0  0.10749538065371676  0.7884717455401857  0.0320123658124345  1.0000
  C   C18       1.0  0.8924386042560073  0.21147518268001875  0.5320777091638931  1.0000
  C   C19       1.0  0.896010260443177  0.20869727141481328  0.9679261564497922  1.0000
  C   C20       1.0  0.10397840914916402  0.7913052372735693  0.4678691896138787  1.0000
  C   C21       1.0  0.13620959366086546  0.6742423790825712  0.0365153582261115  1.0000
  C   C22       1.0  0.8637674057204734  0.325747683135532  0.5366086885088279  1.0000
  C   C23       1.0  0.8667450557127127  0.32268775323706234  0.9644607432590107  1.0000
  C   C24       1.0  0.13324537815815063  0.6773104043003288  0.46437912160171624  1.0000
  C   C25       1.0  0.17152656080509848  0.47973204799726715  0.9938974111890319  1.0000
  C   C26       1.0  0.8284797681931266  0.5202359740915556  0.4940294623492818  1.0000
  C   C27       1.0  0.8310802374829294  0.5153137061372705  0.0083301260315736  1.0000
  C   C28       1.0  0.16887879116097795  0.484708751516685  0.508208964241625  1.0000
  C   C29       1.0  0.09288542543497874  0.8181067076395296  0.8758720197626602  1.0000
  C   C30       1.0  0.9069629088831448  0.18164937661063624  0.3759270529860999  1.0000
  C   C31       1.0  0.909894457735014  0.17205835301860625  0.1239505932028919  1.0000
  C   C32       1.0  0.09023260607406768  0.8281885562450954  0.6239059665896534  1.0000
  C   C33       1.0  0.09986651692336335  0.8647991205904407  0.08277614146301461  1.0000
  C   C34       1.0  0.9001306804827398  0.13525306221499994  0.5828356403787538  1.0000
  C   C35       1.0  0.9057084001196714  0.13548366111825066  0.9165772212214307  1.0000
  C   C36       1.0  0.09421959053158707  0.8644442206910273  0.4165379338291899  1.0000
  O   O1        1.0  0.9072709865659762  0.13126815577060574  0.7552044619794742  1.0000
  O   O2        1.0  0.0927542810082755  0.8686916201373196  0.2550867939233541  1.0000
  O   O3        1.0  0.5721136450074554  0.13026841553629254  0.9406291834220538  1.0000
  O   O4        1.0  0.4278647250320092  0.8695735953284472  0.4406650530940155  1.0000
  O   O5        1.0  0.4294553867173151  0.867331535248866  0.0590618635495304  1.0000
  O   O6        1.0  0.5705720669586681  0.13279804292838554  0.5590556572865637  1.0000
  O   O7        1.0  0.37876573396262364  0.5489606187366791  0.9220967252514143  1.0000
  O   O8        1.0  0.6214562754948291  0.4509987837354502  0.4221188714474309  1.0000
  O   O9        1.0  0.6248653915625583  0.4496695196601125  0.0803481583376708  1.0000
  O   O10       1.0  0.37484891218696254  0.550259898886921  0.5803460500766917  1.0000
  O   O11       1.0  0.35624863992184436  0.38389569177919486  0.0014039941167638  1.0000
  O   O12       1.0  0.6437832745628924  0.616134962696009  0.5014427470750888  1.0000
  O   O13       1.0  0.6474111214256268  0.6126216684696149  0.0006645690033196  1.0000
  O   O14       1.0  0.35251798279101376  0.3872766383810103  0.5006473089126118  1.0000
  O   O15       1.0  0.4143422831386162  0.6364296563848344  0.019864596940060205  1.0000
  O   O16       1.0  0.5856004580405312  0.36363052718019884  0.519880687935256  1.0000
  O   O17       1.0  0.5880978347390595  0.35946176006510916  0.9823067371734951  1.0000
  O   O18       1.0  0.41192259827669636  0.6404272194864832  0.4823162231747915  1.0000
  O   O19       1.0  0.3334202136515218  0.8348232928261516  0.8413487249374613  1.0000
  O   O20       1.0  0.6663916330988542  0.1648480165176878  0.3414325444723402  1.0000
  O   O21       1.0  0.6731511257122876  0.15973471059097485  0.1615497715736041  1.0000
  O   O22       1.0  0.3269642274739156  0.8404916110341394  0.6614942109296749  1.0000
  O   O23       1.0  0.3203415859995076  0.011925186118880006  0.9076081835088559  1.0000
  O   O24       1.0  0.6795658242939241  0.9878608527456908  0.4076543205495682  1.0000
  O   O25       1.0  0.6785799890361517  0.9845016889671856  0.0925759433581419  1.0000
  O   O26       1.0  0.3215582876552645  0.015640609587649106  0.5925487847694484  1.0000
  O   O27       1.0  0.2563398742808616  0.0061159583618533055  0.8052037255963357  1.0000
  O   O28       1.0  0.7434968462467995  0.9935425487202566  0.30523954922223606  1.0000
  O   O29       1.0  0.7459324009417757  0.9813321937231623  0.1937668999348645  1.0000
  O   O30       1.0  0.2542372671320976  0.0189953048118241  0.6937387762049809  1.0000
  O   O31       1.0  0.9575409307041626  0.9152267668639812  0.1619761821013341  1.0000
  O   O32       1.0  0.0426950907371335  0.0853286765205183  0.6620387620911075  1.0000
  O   O33       1.0  0.04837563949296  0.06984118890882482  0.8430468989525152  1.0000
  O   O34       1.0  0.9514372389102166  0.9298538210900991  0.3430202053814284  1.0000
  O   O35       1.0  0.8477549834058067  0.8397984842250922  0.066652259204993  1.0000
  O   O36       1.0  0.15226580311360044  0.16019126367759645  0.5666593206445826  1.0000
  O   O37       1.0  0.15455446338324924  0.15813545601720597  0.9377994480243003  1.0000
  O   O38       1.0  0.845387109040381  0.8417404131331881  0.43779427255582704  1.0000
  O   O39       1.0  0.8978386765614205  0.6750173393560815  0.131441171884255  1.0000
  O   O40       1.0  0.10217780278976818  0.32535127548916176  0.6312712099810227  1.0000
  O   O41       1.0  0.11996862918486782  0.31602188180458063  0.8657580479709921  1.0000
  O   O42       1.0  0.87994594964394  0.683739503443441  0.3657331229187761  1.0000
  O   O43       1.0  0.4059516883337793  0.30833451009153384  0.8926031405524241  1.0000
  O   O44       1.0  0.5940541551464874  0.6914158499351544  0.3926293506947758  1.0000
  O   O45       1.0  0.5960724077440247  0.6866007701950638  0.10909733003946091  1.0000
  O   O46       1.0  0.40388803166624854  0.31358538788910556  0.6091101416173927  1.0000
  O   O47       1.0  0.3550913608958907  0.11368301758092512  0.0195715342870741  1.0000
  O   O48       1.0  0.6448690613763902  0.8863137728849325  0.5196040215191502  1.0000
  O   O49       1.0  0.6475268588173222  0.8806096439071782  0.9817504046158305  1.0000
  O   O50       1.0  0.3524539166608208  0.11930738781936162  0.4817567190680094  1.0000
  O   O51       1.0  0.19993987069038613  0.24249459172110488  0.7568535371423479  1.0000
  O   O52       1.0  0.8001984347572986  0.7575071512119821  0.2565090783737319  1.0000
  O   O53       1.0  0.0026622375779866408  0.8887988097701227  0.749661943412491  1.0000
  O   O54       1.0  0.9973405193221156  0.11129177059298463  0.2498439657469973  1.0000
