data_image0
_chemical_formula_structural       Zr6H56C90O32
_chemical_formula_sum              "Zr6 H56 C90 O32"
_cell_length_a       19.13669698746902
_cell_length_b       19.11343333941751
_cell_length_c       19.13081186082317
_cell_angle_alpha    59.709698049822386
_cell_angle_beta     59.92811263397336
_cell_angle_gamma    60.022726519947014

_space_group_name_H-M_alt    "P 1"
_space_group_IT_number       1

loop_
  _space_group_symop_operation_xyz
  'x, y, z'

loop_
  _atom_site_type_symbol
  _atom_site_label
  _atom_site_symmetry_multiplicity
  _atom_site_fract_x
  _atom_site_fract_y
  _atom_site_fract_z
  _atom_site_occupancy
  Zr  Zr1       1.0  0.907234831424219  0.4069808369749025  0.5930253396361567  1.0000
  Zr  Zr2       1.0  0.09280230114577387  0.5924197214446564  0.40758827062245473  1.0000
  Zr  Zr3       1.0  0.09203374774178719  0.4065121652698239  0.5934155767617001  1.0000
  Zr  Zr4       1.0  0.9079839267779234  0.5928187934448629  0.40714378885689245  1.0000
  Zr  Zr5       1.0  0.9077198597440982  0.5920387560313785  0.5925266339651785  1.0000
  Zr  Zr6       1.0  0.09230635411629602  0.407480035052771  0.40792413596964394  1.0000
  H   H1        1.0  0.9269777214445866  0.4260299255064054  0.7190883753358364  1.0000
  H   H2        1.0  0.927862516552686  0.7184799540328656  0.42671460127367294  1.0000
  H   H3        1.0  0.2180031836220237  0.4268017411694204  0.42794672523787386  1.0000
  H   H4        1.0  0.927254791592276  0.4274241097859102  0.42734008763196135  1.0000
  H   H5        1.0  0.32013502387547965  0.6133266019618375  0.17733188661438243  1.0000
  H   H6        1.0  0.45035924513636844  0.6128899257261723  0.05005805509877351  1.0000
  H   H7        1.0  0.6772310376277987  0.38903717520791753  0.8204379603976903  1.0000
  H   H8        1.0  0.5499808314930944  0.38653341574242006  0.9507020028499016  1.0000
  H   H9        1.0  0.6781283537029521  0.6134302079190377  0.8193836703210026  1.0000
  H   H10       1.0  0.5508809692302351  0.6128395494584352  0.949608835050107  1.0000
  H   H11       1.0  0.3193230188225157  0.3889335012037876  0.17829718170543882  1.0000
  H   H12       1.0  0.4494928776881721  0.38662526128539537  0.05104344728221841  1.0000
  H   H13       1.0  0.11322815483068632  0.8201283482933377  0.38926257401563197  1.0000
  H   H14       1.0  0.11270372407002287  0.9504767647970382  0.3865791069187878  1.0000
  H   H15       1.0  0.889153325988076  0.17703727120142754  0.6135231412962838  1.0000
  H   H16       1.0  0.8865951937228829  0.049869802169602934  0.6129247068891602  1.0000
  H   H17       1.0  0.1133867740362859  0.1781008185114175  0.3891152935342533  1.0000
  H   H18       1.0  0.11274087580940766  0.05095142730071699  0.38663448744496526  1.0000
  H   H19       1.0  0.8889744576438897  0.8192089350709467  0.6136310470891574  1.0000
  H   H20       1.0  0.886563925232039  0.9495172345103454  0.6128629473376748  1.0000
  H   H21       1.0  0.3195001808778599  0.17785304242043054  0.38953130216508924  1.0000
  H   H22       1.0  0.44973937624239096  0.05098151482555828  0.3867514537608657  1.0000
  H   H23       1.0  0.6780724135722666  0.8194397858970106  0.6131649612549952  1.0000
  H   H24       1.0  0.5509800561899496  0.9494650592338015  0.6127307367191509  1.0000
  H   H25       1.0  0.6774723486886529  0.8203435889238689  0.38891665927191355  1.0000
  H   H26       1.0  0.5502837008082152  0.9503306308386145  0.38665524149060815  1.0000
  H   H27       1.0  0.32021565514337164  0.17690171247647152  0.613756547493182  1.0000
  H   H28       1.0  0.45051146175339335  0.05004847498549474  0.6128231749787646  1.0000
  H   H29       1.0  0.889412823723049  0.612964855377477  0.8195824303849549  1.0000
  H   H30       1.0  0.8869105488407808  0.6127183752709084  0.9495456885284383  1.0000
  H   H31       1.0  0.11317002878823958  0.3893861656302917  0.1780120465769457  1.0000
  H   H32       1.0  0.1126065923546661  0.38676486931468196  0.05106042833200769  1.0000
  H   H33       1.0  0.8891801655096571  0.6135769838538678  0.17718649304415388  1.0000
  H   H34       1.0  0.8866931748990439  0.6128100925941737  0.050234790002655  1.0000
  H   H35       1.0  0.11335256128450756  0.3887074469962498  0.820646708101151  1.0000
  H   H36       1.0  0.11279116701292913  0.38663661272120453  0.950564636782346  1.0000
  H   H37       1.0  0.1147304080156316  0.8215461540365325  0.17606765956431059  1.0000
  H   H38       1.0  0.17702075713305712  0.9350785984232386  0.06512532615549568  1.0000
  H   H39       1.0  0.8915320165951854  0.8174103335782518  0.1800519855266672  1.0000
  H   H40       1.0  0.8875815158839014  0.17520728194948262  0.8225102120673213  1.0000
  H   H41       1.0  0.8226874232679646  0.06413394766454412  0.9361019336084129  1.0000
  H   H42       1.0  0.11097703112500293  0.17909287838103435  0.8184721745556444  1.0000
  H   H43       1.0  0.3199261979852109  0.38811626934658944  0.6143620077193432  1.0000
  H   H44       1.0  0.4500210417711725  0.3859969707780877  0.6134488837180926  1.0000
  H   H45       1.0  0.6777326446700654  0.6139788412869436  0.38850511208035965  1.0000
  H   H46       1.0  0.5506584658168947  0.6132577986127786  0.38619998239997955  1.0000
  H   H47       1.0  0.6775240851239062  0.38878378262197777  0.6136928628813082  1.0000
  H   H48       1.0  0.5504910406271718  0.3861614801912907  0.6132889755756284  1.0000
  H   H49       1.0  0.319815041718975  0.6133320275423628  0.3891807848571247  1.0000
  H   H50       1.0  0.4499069755012783  0.6131020406857175  0.38637597353476855  1.0000
  H   H51       1.0  0.1982174792241409  0.0905291054944897  0.9750084101414417  1.0000
  H   H52       1.0  0.1967807610328264  0.13031886837527637  0.8696650987375065  1.0000
  H   H53       1.0  0.2636548743766553  0.025037006314150102  0.9098015503964235  1.0000
  H   H54       1.0  0.7362258560014607  0.9737309594469465  0.09182153590283791  1.0000
  H   H55       1.0  0.8034558578580612  0.8685329246836632  0.13147586321298388  1.0000
  H   H56       1.0  0.8014992526183348  0.9085012213350295  0.02632969889272397  1.0000
  C   C1        1.0  0.7627464257454262  0.5019732574779638  0.7330274971489461  1.0000
  C   C2        1.0  0.0022314808636425413  0.7326276797726975  0.5023815826768967  1.0000
  C   C3        1.0  0.2329113105415246  0.5020823626309364  0.2629710358696968  1.0000
  C   C4        1.0  0.0020501468644197316  0.2625820953891562  0.5024506996438021  1.0000
  C   C5        1.0  0.0006053789283840196  0.2611575317486086  0.7349147556744241  1.0000
  C   C6        1.0  0.7628337778038202  0.5022520383251886  0.5019785886198278  1.0000
  C   C7        1.0  0.0034071267437170987  0.7340164279043222  0.2619269895023848  1.0000
  C   C8        1.0  0.23295053713711403  0.5014306850012176  0.5027766852035215  1.0000
  C   C9        1.0  0.002148292474835381  0.501263540254932  0.7334444126254738  1.0000
  C   C10       1.0  0.23256092234465334  0.26216281528284213  0.5030010927377616  1.0000
  C   C11       1.0  0.00222617044006047  0.5026394049405526  0.2625697295640704  1.0000
  C   C12       1.0  0.7631549620227887  0.733065686057678  0.5016521553802138  1.0000
  C   C13       1.0  0.31133012634371954  0.501457512278435  0.18564844212390605  1.0000
  C   C14       1.0  0.6854654153531922  0.5015219881466917  0.8114662501288735  1.0000
  C   C15       1.0  0.3493568282304692  0.5640511971497801  0.14871014928973372  1.0000
  C   C16       1.0  0.4228472811948122  0.5630638421550956  0.07692193370491657  1.0000
  C   C17       1.0  0.6485571527738967  0.437785492248608  0.8495868582837717  1.0000
  C   C18       1.0  0.5767787551713752  0.4370859373098169  0.9230916983847592  1.0000
  C   C19       1.0  0.6491091719261206  0.5641164865423676  0.8489523423687617  1.0000
  C   C20       1.0  0.5773162042865035  0.563072614096953  0.9224615261103611  1.0000
  C   C21       1.0  0.34884794099214383  0.4377217208704208  0.14928982938040036  1.0000
  C   C22       1.0  0.42233132787600874  0.4370936442510783  0.077491150509026  1.0000
  C   C23       1.0  0.4613136446351333  0.49982884333034866  0.03900860583365068  1.0000
  C   C24       1.0  0.5388402982774989  0.49982099688573806  0.9614911700663102  1.0000
  C   C25       1.0  0.0014889783787523736  0.811176332917704  0.5017726543968735  1.0000
  C   C26       1.0  0.0015254741107638865  0.1853730825783585  0.5016809210101059  1.0000
  C   C27       1.0  0.06400161638161712  0.8493044901998416  0.4379837069649995  1.0000
  C   C28       1.0  0.06296609249756101  0.9228761136575586  0.43717268361526623  1.0000
  C   C29       1.0  0.93781636598662  0.14845545483778694  0.5642123665903329  1.0000
  C   C30       1.0  0.93709114859206  0.07672021834772376  0.5631350947179855  1.0000
  C   C31       1.0  0.06407940653728152  0.14908274768704635  0.437881913321668  1.0000
  C   C32       1.0  0.06299596840908343  0.07734648497848436  0.43715330370397965  1.0000
  C   C33       1.0  0.9377444870904695  0.8487512181538863  0.5642912064419152  1.0000
  C   C34       1.0  0.9370587261239722  0.9223206066881742  0.5631374740973245  1.0000
  C   C35       1.0  0.9997578721502334  0.9613418954621838  0.49986128868518886  1.0000
  C   C36       1.0  0.9997575205182017  0.03886231450790207  0.499867265572  1.0000
  C   C37       1.0  0.3112559030541746  0.18518378915563002  0.5020728639006578  1.0000
  C   C38       1.0  0.6857231310150238  0.8113918828945259  0.501285184492325  1.0000
  C   C39       1.0  0.3489689908367453  0.14892056157317055  0.4382255071998244  1.0000
  C   C40       1.0  0.4225284375017465  0.07731345666019245  0.43731910034055943  1.0000
  C   C41       1.0  0.6491849611561874  0.8489105371117205  0.5638956650299606  1.0000
  C   C42       1.0  0.5774196390675355  0.9223504462959722  0.5629458296013468  1.0000
  C   C43       1.0  0.6488305922382052  0.8494505097841555  0.43768926804284564  1.0000
  C   C44       1.0  0.577027258118619  0.922852356795083  0.437112740676362  1.0000
  C   C45       1.0  0.34940337708577823  0.1483718975574816  0.5644086018741846  1.0000
  C   C46       1.0  0.4229704975785964  0.0767608258904957  0.5631672986126902  1.0000
  C   C47       1.0  0.4614880280439591  0.038842724093150566  0.49991964156915714  1.0000
  C   C48       1.0  0.5389961142389337  0.9613516443590199  0.4998008639932578  1.0000
  C   C49       1.0  0.0016569470202298434  0.5010410408983503  0.8116663731409234  1.0000
  C   C50       1.0  0.0015242187735539717  0.5018804872393117  0.18543091022871747  1.0000
  C   C51       1.0  0.9380801935165902  0.563719315480448  0.8490970626673262  1.0000
  C   C52       1.0  0.9373512983623088  0.5628833851802071  0.9224807333140392  1.0000
  C   C53       1.0  0.06394295694124008  0.43811196188688933  0.1490879869413106  1.0000
  C   C54       1.0  0.0628963700974268  0.4373015962693287  0.07742912630831005  1.0000
  C   C55       1.0  0.9378773869367124  0.5642810689010814  0.1486048915206696  1.0000
  C   C56       1.0  0.9371702285842503  0.563123309612365  0.07694250086250788  1.0000
  C   C57       1.0  0.06411202232969503  0.4375013514139637  0.8497214997045432  1.0000
  C   C58       1.0  0.06306649168976013  0.4370336581228358  0.9230759751329886  1.0000
  C   C59       1.0  0.9998990153635531  0.49977310403428304  0.9614950781876247  1.0000
  C   C60       1.0  0.9998087897630513  0.49991028348273403  0.03896631430505695  1.0000
  C   C61       1.0  0.06532949937371776  0.8506874641901873  0.1474506206298756  1.0000
  C   C62       1.0  0.06472700404103196  0.9250295592387586  0.07449155608782124  1.0000
  C   C63       1.0  0.12815707465106363  0.9646178253202748  0.03547749887189155  1.0000
  C   C64       1.0  0.9385715182551162  0.8493782109678777  0.14867185124417398  1.0000
  C   C65       1.0  0.9349648391288454  0.9237073593995644  0.07576090406357862  1.0000
  C   C66       1.0  0.8695096407971614  0.9625164746506484  0.037536661456165805  1.0000
  C   C67       1.0  0.936469404637087  0.14660958510574296  0.8516260521346128  1.0000
  C   C68       1.0  0.9356831384329495  0.07360342092511013  0.9259677011066786  1.0000
  C   C69       1.0  0.871692284617083  0.034521049546334795  0.9655940915005132  1.0000
  C   C70       1.0  0.06330029018226895  0.14778683009007662  0.8503839539005824  1.0000
  C   C71       1.0  0.06550835837492014  0.07483499357609695  0.9246894595700754  1.0000
  C   C72       1.0  0.13039287568263797  0.036556461760475875  0.9634997488913442  1.0000
  C   C73       1.0  0.002806021440427645  0.8130705882915024  0.1840491232925672  1.0000
  C   C74       1.0  0.9995656685859513  0.9621745387034724  0.0376774455543299  1.0000
  C   C75       1.0  0.9999862175745234  0.18324355097389128  0.8140344846598497  1.0000
  C   C76       1.0  0.0005145343784746249  0.036750572830435035  0.9631302979353578  1.0000
  C   C77       1.0  0.3113692063127118  0.5010014736440168  0.5020994465730554  1.0000
  C   C78       1.0  0.6855270275044985  0.5016943943570097  0.5014069367515149  1.0000
  C   C79       1.0  0.3492207866726672  0.43714128114086737  0.5647924695767088  1.0000
  C   C80       1.0  0.42267655700268136  0.43665581379401885  0.563550935392371  1.0000
  C   C81       1.0  0.6489181641873073  0.5644444413636974  0.4374901380600775  1.0000
  C   C82       1.0  0.5771840597719587  0.563312439614215  0.4368911508752619  1.0000
  C   C83       1.0  0.6488012027441742  0.4377069733119042  0.5642270381350016  1.0000
  C   C84       1.0  0.5770774841964438  0.4369285780528499  0.5632803806734473  1.0000
  C   C85       1.0  0.34915089935890337  0.5639028533214018  0.4380621458180159  1.0000
  C   C86       1.0  0.42260814156826126  0.5630589124954566  0.43717088889356154  1.0000
  C   C87       1.0  0.46139064749298336  0.4996783333601441  0.5000045677197206  1.0000
  C   C88       1.0  0.5389128673460488  0.4998101939176463  0.49986182398991735  1.0000
  C   C89       1.0  0.20047940127227545  0.07301256443521706  0.9270953450762747  1.0000
  C   C90       1.0  0.799456191367447  0.9259474354922543  0.07416662981069791  1.0000
  O   O1        1.0  0.7930866118664066  0.4424808576483129  0.702685558371904  1.0000
  O   O2        1.0  0.061775438842708544  0.7021661394693127  0.4429801840961716  1.0000
  O   O3        1.0  0.20271539254571988  0.5613523854156385  0.29355981351532273  1.0000
  O   O4        1.0  0.9424521846318399  0.2930358108632872  0.5618494814070375  1.0000
  O   O5        1.0  0.06003018295184139  0.2920584601905887  0.7040615974462058  1.0000
  O   O6        1.0  0.793766640693029  0.5618017610944219  0.44213526126054603  1.0000
  O   O7        1.0  0.9439441751668555  0.7031894577665054  0.2927969870683356  1.0000
  O   O8        1.0  0.20238132019984076  0.441533551922852  0.562309065075688  1.0000
  O   O9        1.0  0.9426895231866936  0.5606690264273697  0.7027111219742894  1.0000
  O   O10       1.0  0.202108317055412  0.2931919084804235  0.44327075293250573  1.0000
  O   O11       1.0  0.06138797049624859  0.44288651129485146  0.29358956534277075  1.0000
  O   O12       1.0  0.7939079353344595  0.702330117079242  0.5610864782365184  1.0000
  O   O13       1.0  0.20189545717975924  0.29243348100469996  0.5626484626856795  1.0000
  O   O14       1.0  0.9428823481833248  0.562156844834945  0.2929866388955491  1.0000
  O   O15       1.0  0.7940658473446403  0.7030259783034082  0.4417673483967379  1.0000
  O   O16       1.0  0.06111095111445747  0.4413117087005886  0.7034965718886923  1.0000
  O   O17       1.0  0.9410377149579433  0.2922311455278359  0.704320414462245  1.0000
  O   O18       1.0  0.20262060698600937  0.5610128306076518  0.44286062854628494  1.0000
  O   O19       1.0  0.06247319068621248  0.7034950686842902  0.2929894117266656  1.0000
  O   O20       1.0  0.7934869417449233  0.44228418012690435  0.5615408566885803  1.0000
  O   O21       1.0  0.06138627604111232  0.293641274989902  0.44275065685278053  1.0000
  O   O22       1.0  0.7939549647243279  0.5611658602846955  0.7024597910919682  1.0000
  O   O23       1.0  0.9423869658328238  0.7020872042993247  0.5615983433600392  1.0000
  O   O24       1.0  0.20222504982525183  0.4423716698586658  0.2940058046277728  1.0000
  O   O25       1.0  0.9479215563024463  0.4480373920153867  0.44808703260032723  1.0000
  O   O26       1.0  0.1559764846916137  0.4475290767310299  0.44856838278596467  1.0000
  O   O27       1.0  0.9484328313836625  0.6562349581259143  0.44766962110280445  1.0000
  O   O28       1.0  0.9476743338162305  0.4470523003810741  0.6568376041796924  1.0000
  O   O29       1.0  0.03847099065220038  0.5377359701225971  0.5387324284295331  1.0000
  O   O30       1.0  0.8850309380978769  0.5381405903245807  0.538353677712152  1.0000
  O   O31       1.0  0.038631618104439276  0.5386083209335765  0.3847690642843702  1.0000
  O   O32       1.0  0.038002733222995674  0.3841986959542608  0.5391594403571247  1.0000
