data_image0
_chemical_formula_structural       Zr6H58C88N10Cl4O32
_chemical_formula_sum              "Zr6 H58 C88 N10 Cl4 O32"
_cell_length_a       19.07607662521289
_cell_length_b       19.063127716922526
_cell_length_c       19.061410258356645
_cell_angle_alpha    59.94741219820539
_cell_angle_beta     59.98018642786479
_cell_angle_gamma    59.97084272319855

_space_group_name_H-M_alt    "P 1"
_space_group_IT_number       1

loop_
  _space_group_symop_operation_xyz
  'x, y, z'

loop_
  _atom_site_type_symbol
  _atom_site_label
  _atom_site_symmetry_multiplicity
  _atom_site_fract_x
  _atom_site_fract_y
  _atom_site_fract_z
  _atom_site_occupancy
  Zr  Zr1       1.0  0.9078272167804614  0.4064611213096825  0.592432911063888  1.0000
  Zr  Zr2       1.0  0.09324982812563573  0.5920562098551231  0.4068794057657783  1.0000
  Zr  Zr3       1.0  0.09326908284872096  0.40692928772658393  0.5925043492299549  1.0000
  Zr  Zr4       1.0  0.9072901456014864  0.592093156160303  0.40734043370722617  1.0000
  Zr  Zr5       1.0  0.9076940191088025  0.5921064950965585  0.5925063551820743  1.0000
  Zr  Zr6       1.0  0.09319551991018933  0.40661362688516783  0.4070335139981437  1.0000
  H   H1        1.0  0.9277225422812945  0.4262010624419192  0.7188324903774584  1.0000
  H   H2        1.0  0.9272309758971744  0.7184416370292722  0.4265899848072081  1.0000
  H   H3        1.0  0.21915076444263817  0.42669369925589246  0.4268212006982495  1.0000
  H   H4        1.0  0.9273536081971798  0.4264199109234994  0.427066546172135  1.0000
  H   H5        1.0  0.28966562787847033  0.6328397195878354  0.1472344371549425  1.0000
  H   H6        1.0  0.6445254038535991  0.4333623457752438  0.7882849950949404  1.0000
  H   H7        1.0  0.7197167335236117  0.5623141720435  0.8570758202199967  1.0000
  H   H8        1.0  0.5934278179518698  0.5556649460003416  0.9927835314409278  1.0000
  H   H9        1.0  0.35979730736632826  0.3601412483247444  0.21805653284210533  1.0000
  H   H10       1.0  0.49601551534091476  0.359288605724629  0.09254094143182093  1.0000
  H   H11       1.0  0.13365232599991841  0.7880901924300545  0.43358898282577474  1.0000
  H   H12       1.0  0.9301809561240405  0.14685288495634555  0.6330860037391731  1.0000
  H   H13       1.0  0.061819823594561264  0.21786733330783659  0.36038598364732616  1.0000
  H   H14       1.0  0.05186154097329877  0.09249502627636731  0.359396857036792  1.0000
  H   H15       1.0  0.8607284564947263  0.8567922948291129  0.5625576390592285  1.0000
  H   H16       1.0  0.8578532751060949  0.9926304324774835  0.555753733540257  1.0000
  H   H17       1.0  0.28718813240306673  0.14298509102878398  0.43584288931342036  1.0000
  H   H18       1.0  0.6440012181284159  0.7856739879620847  0.6339451191703916  1.0000
  H   H19       1.0  0.7205348374525682  0.8600150529999768  0.35979590429452196  1.0000
  H   H20       1.0  0.595148629717933  0.9964668978172495  0.358572671447753  1.0000
  H   H21       1.0  0.35924134461588847  0.21913706547489661  0.5611699313458941  1.0000
  H   H22       1.0  0.4957542900153484  0.09375733502334081  0.5518296377878398  1.0000
  H   H23       1.0  0.936662970284658  0.6337231509717898  0.7858279034068616  1.0000
  H   H24       1.0  0.134228801740285  0.4356345399824662  0.14327232556771455  1.0000
  H   H25       1.0  0.8606626745924187  0.5608429568516727  0.21939393728005988  1.0000
  H   H26       1.0  0.858985261971071  0.5516367176882964  0.09386691664666089  1.0000
  H   H27       1.0  0.05969504928491897  0.3595301221173983  0.8604162235129564  1.0000
  H   H28       1.0  0.05008973214197695  0.35842253247056993  0.9966996129783823  1.0000
  H   H29       1.0  0.11526221871385904  0.8183149776648904  0.17584406066833214  1.0000
  H   H30       1.0  0.8911128855606805  0.8179081122537184  0.1759022350726623  1.0000
  H   H31       1.0  0.8906090685104217  0.17539351970392422  0.8187317377537155  1.0000
  H   H32       1.0  0.11509854661646562  0.17546907337272455  0.8182972421948022  1.0000
  H   H33       1.0  0.2872561654092534  0.43460513108761495  0.6335855336869046  1.0000
  H   H34       1.0  0.643683588497346  0.6333108220321721  0.43608805633756015  1.0000
  H   H35       1.0  0.7202131626225067  0.35931647551980467  0.5603374677144047  1.0000
  H   H36       1.0  0.5948987805380666  0.35775114091930516  0.5508568837255295  1.0000
  H   H37       1.0  0.3598733329396707  0.5604635798544422  0.3598106115853171  1.0000
  H   H38       1.0  0.49632244258784675  0.550611472484988  0.3584077401203203  1.0000
  H   H39       1.0  0.4674881803274716  0.6535703316162156  0.9465096838811035  1.0000
  H   H40       1.0  0.37268095405452334  0.7059098301923612  0.008722379628132155  1.0000
  H   H41       1.0  0.45473068004024225  0.41761409894942136  0.9783330400368371  1.0000
  H   H42       1.0  0.5200137460618279  0.3908804192658124  0.8868718468838992  1.0000
  H   H43       1.0  0.14907970243005766  0.9782552505722321  0.41769459964421407  1.0000
  H   H44       1.0  0.20207427762544233  0.8865903843515851  0.39122903416049576  1.0000
  H   H45       1.0  0.9321153496546299  0.9462994116245441  0.6536682005908077  1.0000
  H   H46       1.0  0.912441972827743  0.008465752674304546  0.7060299997424976  1.0000
  H   H47       1.0  0.47785964678257636  0.9532668273711877  0.41865762988960836  1.0000
  H   H48       1.0  0.3858075042126003  0.017954595659652732  0.3928263619341905  1.0000
  H   H49       1.0  0.4528753711532119  0.9751972204324846  0.6514112598155889  1.0000
  H   H50       1.0  0.5177971014062025  0.8829078644057519  0.7043933804554213  1.0000
  H   H51       1.0  0.9208298943523585  0.6512604783657706  0.9752904057128405  1.0000
  H   H52       1.0  0.8950278271538463  0.7041651360461499  0.8831267992793669  1.0000
  H   H53       1.0  0.15049521394170287  0.4184278922452123  0.9535610436910671  1.0000
  H   H54       1.0  0.20365878851166025  0.39247721931511853  0.0183027152694848  1.0000
  H   H55       1.0  0.4760093731795935  0.42002288559822193  0.651367875577712  1.0000
  H   H56       1.0  0.38205700933912806  0.39654669490882116  0.7049689222956202  1.0000
  H   H57       1.0  0.4532767955864827  0.6503276762468673  0.41973520623308497  1.0000
  H   H58       1.0  0.5174076948879717  0.7036803274298579  0.39536908421207767  1.0000
  C   C1        1.0  0.7642610164991551  0.5004212308753467  0.7345199747257142  1.0000
  C   C2        1.0  0.000695468158411979  0.734210272759121  0.5007712728007689  1.0000
  C   C3        1.0  0.23538854482578134  0.49951649462824577  0.26342537958915097  1.0000
  C   C4        1.0  0.0016874865605771324  0.263031232372363  0.49982613219637534  1.0000
  C   C5        1.0  0.00299752728501801  0.26036828832553743  0.7331386138994843  1.0000
  C   C6        1.0  0.7635637369400283  0.4995208900332955  0.5019595740648981  1.0000
  C   C7        1.0  0.003474080373905608  0.7327251911732873  0.2607832636447895  1.0000
  C   C8        1.0  0.2349448398008462  0.5014712647615766  0.49991545492786554  1.0000
  C   C9        1.0  0.0020145263464641065  0.4995338910980396  0.7346017271104585  1.0000
  C   C10       1.0  0.23468829132553984  0.26274276662280033  0.5020157572685734  1.0000
  C   C11       1.0  0.0006628439219439483  0.5016494071355028  0.26312191357099113  1.0000
  C   C12       1.0  0.7639009710424101  0.7342510640209527  0.4998863052086974  1.0000
  C   C13       1.0  0.3163256433899306  0.4973393297855892  0.1883886697932978  1.0000
  C   C14       1.0  0.6886647778150987  0.4982471335082295  0.8150402265646617  1.0000
  C   C15       1.0  0.3348118148645868  0.5733521490671762  0.1334303553178556  1.0000
  C   C16       1.0  0.4089143019612678  0.5747033900329513  0.060302036393736096  1.0000
  C   C17       1.0  0.6321346772473079  0.4606206642636791  0.8335225148679298  1.0000
  C   C18       1.0  0.5586365578059826  0.46009499153165495  0.9073818614144784  1.0000
  C   C19       1.0  0.6746101631110051  0.5339528791339632  0.8717573521350346  1.0000
  C   C20       1.0  0.6038087178101678  0.5305856603452099  0.9467068530037395  1.0000
  C   C21       1.0  0.37389566480010916  0.4194299551180052  0.17362346502701334  1.0000
  C   C22       1.0  0.44893556826933423  0.4198799524470119  0.10303295109781621  1.0000
  C   C23       1.0  0.46739323658245985  0.4961661585202889  0.044295908089821985  1.0000
  C   C24       1.0  0.5444467925523779  0.49511388279109536  0.9659493999651401  1.0000
  C   C25       1.0  0.9978771785918782  0.8148201985783672  0.4984836168222058  1.0000
  C   C26       1.0  0.997854109776803  0.18806873645503716  0.4975967899911354  1.0000
  C   C27       1.0  0.07352639662192204  0.8333399376325802  0.4608099877461455  1.0000
  C   C28       1.0  0.07363778359273712  0.9072798855565409  0.46018127897508515  1.0000
  C   C29       1.0  0.9582554679527959  0.13311167349080233  0.5735681009123255  1.0000
  C   C30       1.0  0.9558130782702746  0.06007974502721714  0.5748473177112886  1.0000
  C   C31       1.0  0.03287574612443929  0.17341602952667748  0.41965054556597176  1.0000
  C   C32       1.0  0.027869735456682955  0.10292836752111609  0.42001858197046726  1.0000
  C   C33       1.0  0.9194811476301438  0.8715402034919676  0.5341406905173399  1.0000
  C   C34       1.0  0.9186414055608267  0.946554601526344  0.5306919967637427  1.0000
  C   C35       1.0  0.9942136220583181  0.9658362168902246  0.4951772988454477  1.0000
  C   C36       1.0  0.9918344195680292  0.0441827235135507  0.49625631189349645  1.0000
  C   C37       1.0  0.31543048475510455  0.1873813353156208  0.4992377913682374  1.0000
  C   C38       1.0  0.6885517018184116  0.8150208908683538  0.4975997652979205  1.0000
  C   C39       1.0  0.33318781661402147  0.13074391168195384  0.46205652190941743  1.0000
  C   C40       1.0  0.4071127350887381  0.057315550354701435  0.46086072173137893  1.0000
  C   C41       1.0  0.6317528275452134  0.8320714466616151  0.5739878240921568  1.0000
  C   C42       1.0  0.5580546665598689  0.9057856979015568  0.5750164090174437  1.0000
  C   C43       1.0  0.6751405761030468  0.8734182194031489  0.41921549874405173  1.0000
  C   C44       1.0  0.604466363519741  0.948502767525369  0.4193958456330408  1.0000
  C   C45       1.0  0.3731796962317305  0.17385755852482987  0.533354382307472  1.0000
  C   C46       1.0  0.44834719206738777  0.10325416676363383  0.5289175473091775  1.0000
  C   C47       1.0  0.4665057813041855  0.04347238184593054  0.49450520342853804  1.0000
  C   C48       1.0  0.5443733990073767  0.9658319880598043  0.4957709563378359  1.0000
  C   C49       1.0  0.9989903273785002  0.4973449293208032  0.8152867069078553  1.0000
  C   C50       1.0  0.9981593189956611  0.499018138814982  0.18763540895253775  1.0000
  C   C51       1.0  0.9624637507219942  0.5737748649712842  0.8322396302765254  1.0000
  C   C52       1.0  0.9614648141484279  0.5748577745481358  0.9059090980401764  1.0000
  C   C53       1.0  0.0742734100902566  0.46189199347346493  0.13097964101835655  1.0000
  C   C54       1.0  0.07501887332144003  0.4607358283441698  0.05751304802355138  1.0000
  C   C55       1.0  0.9198446353646049  0.533100769328165  0.17407627033621498  1.0000
  C   C56       1.0  0.9197718848416161  0.52873512063627  0.10340994781761713  1.0000
  C   C57       1.0  0.032362634831215965  0.41898955524079884  0.8737127556946902  1.0000
  C   C58       1.0  0.02789392239442611  0.41923317530780235  0.9487228186521293  1.0000
  C   C59       1.0  0.9943729313375228  0.4956397848391134  0.9659651949006829  1.0000
  C   C60       1.0  0.9958527436646136  0.4943831409038709  0.0436139734217135  1.0000
  C   C61       1.0  0.06669712170032224  0.8480484632703948  0.1459730476459525  1.0000
  C   C62       1.0  0.06753705545765602  0.9218682788412664  0.07279566138807783  1.0000
  C   C63       1.0  0.1321975449910014  0.9611590556979406  0.03345139902649654  1.0000
  C   C64       1.0  0.9394558686899828  0.8480352505010061  0.14624238708945106  1.0000
  C   C65       1.0  0.9376922168536838  0.9220250734604676  0.07322719402715433  1.0000
  C   C66       1.0  0.8728301787131941  0.9612868351706252  0.034180598432982365  1.0000
  C   C67       1.0  0.9393217144988383  0.1455400661496143  0.8484511625813695  1.0000
  C   C68       1.0  0.9378329176508584  0.07236080824369413  0.9222985997898263  1.0000
  C   C69       1.0  0.8732231824969713  0.03303162035501836  0.9615617783230945  1.0000
  C   C70       1.0  0.06629747714948304  0.14580397388036911  0.8484170021829485  1.0000
  C   C71       1.0  0.06710540956795082  0.07278471504709229  0.9224163838509155  1.0000
  C   C72       1.0  0.13175750261189018  0.03374947621065871  0.9616693348620019  1.0000
  C   C73       1.0  0.0034113633303363513  0.8114818979621176  0.18207117031117545  1.0000
  C   C74       1.0  0.0024488230680573407  0.9601106061503516  0.03508929183173136  1.0000
  C   C75       1.0  0.003048060580034893  0.18165817433468592  0.8118824536598126  1.0000
  C   C76       1.0  0.002383429583510196  0.03464526287925206  0.96054869728011  1.0000
  C   C77       1.0  0.31568447465143373  0.49844878128289594  0.49746345623956495  1.0000
  C   C78       1.0  0.6882415879052601  0.49705257260254854  0.4990405744996665  1.0000
  C   C79       1.0  0.3332000084237521  0.46113656332857295  0.5737132005640575  1.0000
  C   C80       1.0  0.4068379234637191  0.4601956657585973  0.574693000706965  1.0000
  C   C81       1.0  0.6314928810785576  0.5733008598792537  0.4621376108197594  1.0000
  C   C82       1.0  0.5579623025110152  0.5741277094482911  0.46107906714077973  1.0000
  C   C83       1.0  0.6748074352505281  0.4186545393555435  0.5328017930750447  1.0000
  C   C84       1.0  0.6042297621614026  0.41863167596427797  0.5282715596186803  1.0000
  C   C85       1.0  0.3735911432075412  0.5325533741289448  0.4191429133433573  1.0000
  C   C86       1.0  0.4487448987856339  0.5278418408780468  0.4192365041633294  1.0000
  C   C87       1.0  0.46659543632701167  0.49350784811998244  0.495465591090081  1.0000
  C   C88       1.0  0.5442757732658309  0.494854423685979  0.4942198045738594  1.0000
  N   N1        1.0  0.4246434057841312  0.6517592369879068  0.006501247934259801  1.0000
  N   N2        1.0  0.49926857258191837  0.4303469176084819  0.9191714416689932  1.0000
  N   N3        1.0  0.15092398334884652  0.9191086189252928  0.43043439229969493  1.0000
  N   N4        1.0  0.9168283962944058  0.006266494154928623  0.6518781986758455  1.0000
  N   N5        1.0  0.4186641837075414  0.9976865872101968  0.4315962963535324  1.0000
  N   N6        1.0  0.4982146567035455  0.916513866565225  0.6525267256199356  1.0000
  N   N7        1.0  0.9330699703122323  0.6523998595518776  0.9165853978592508  1.0000
  N   N8        1.0  0.1523918489934743  0.4314456322484901  0.9978945296198205  1.0000
  N   N9        1.0  0.4178679018577681  0.43148740976795347  0.6520066714913924  1.0000
  N   N10       1.0  0.49820757420218337  0.6515539711626488  0.43238307404592996  1.0000
  Cl  Cl1       1.0  0.20947132196447166  0.07976315484917518  0.9161369859338249  1.0000
  Cl  Cl2       1.0  0.2113056616087973  0.9145441330435986  0.07810473385740832  1.0000
  Cl  Cl3       1.0  0.7961032700299955  0.07766889156476965  0.9149184235409109  1.0000
  Cl  Cl4       1.0  0.7946151914905429  0.9157634476056913  0.08020632904850789  1.0000
  O   O1        1.0  0.792494489185067  0.44324156619660454  0.7014493616652899  1.0000
  O   O2        1.0  0.062747657929229  0.7010934283214284  0.4436486596444665  1.0000
  O   O3        1.0  0.20140058634422783  0.5619267433481455  0.29131500475286737  1.0000
  O   O4        1.0  0.9454323415291553  0.29087018490941563  0.5622852302779435  1.0000
  O   O5        1.0  0.0629745399568335  0.2902367311020128  0.7024312689224389  1.0000
  O   O6        1.0  0.7913344971247512  0.562007007107077  0.44551695914934425  1.0000
  O   O7        1.0  0.944335164388093  0.7020218199400504  0.290634063033572  1.0000
  O   O8        1.0  0.20106545443903195  0.44509201621876576  0.5624357169726224  1.0000
  O   O9        1.0  0.9456140775464588  0.5618103598383114  0.7007134478755787  1.0000
  O   O10       1.0  0.2010487770121898  0.2904493904528067  0.4454993900536479  1.0000
  O   O11       1.0  0.06307248498977457  0.44508821395083936  0.29087244195195444  1.0000
  O   O12       1.0  0.79188309797118  0.7003167257668036  0.5622017380832459  1.0000
  O   O13       1.0  0.20557002464882862  0.29480980912693877  0.5602829386532092  1.0000
  O   O14       1.0  0.9393912607693978  0.5598631094019166  0.2952339317986483  1.0000
  O   O15       1.0  0.7956878670358519  0.705367039092728  0.4385594195255461  1.0000
  O   O16       1.0  0.06040569097633858  0.43815119840604677  0.7057727726841208  1.0000
  O   O17       1.0  0.9420817697077551  0.2917106609416038  0.7041953442308538  1.0000
  O   O18       1.0  0.2059195268901988  0.5597951999981063  0.4386180088232834  1.0000
  O   O19       1.0  0.061972910388107205  0.7037977149243132  0.29214473551805736  1.0000
  O   O20       1.0  0.7956038080939931  0.4382104784972751  0.5602527825056711  1.0000
  O   O21       1.0  0.060210955601952935  0.2946775459446157  0.4386442620420397  1.0000
  O   O22       1.0  0.7960234219240402  0.5590055422873803  0.7049672593582059  1.0000
  O   O23       1.0  0.9399186402121062  0.7046404875492341  0.5594007967722447  1.0000
  O   O24       1.0  0.20642457030851352  0.4383141700260467  0.2950839823702863  1.0000
  O   O25       1.0  0.9481581687401005  0.447202291964075  0.4477264978144647  1.0000
  O   O26       1.0  0.1569017884275752  0.4473177553758489  0.44761635175171927  1.0000
  O   O27       1.0  0.9484380019758945  0.6561401443622686  0.44688990870528744  1.0000
  O   O28       1.0  0.9485218805948179  0.44649450429213283  0.6565324872675475  1.0000
  O   O29       1.0  0.03889607815668945  0.5379766438337582  0.5381553915535092  1.0000
  O   O30       1.0  0.8849939394707677  0.5377464303189187  0.5383629778373021  1.0000
  O   O31       1.0  0.03874829430135674  0.5380384944337777  0.3841491298518207  1.0000
  O   O32       1.0  0.039081584871510616  0.3837376593185979  0.5384370365154894  1.0000
