data_image0
_chemical_formula_structural       Hg4H28C36S8N16
_chemical_formula_sum              "Hg4 H28 C36 S8 N16"
_cell_length_a       8.072107391253892
_cell_length_b       11.843312332286567
_cell_length_c       14.774637855852612
_cell_angle_alpha    112.15916961976922
_cell_angle_beta     90.0384661024354
_cell_angle_gamma    109.87947973055945

_space_group_name_H-M_alt    "P 1"
_space_group_IT_number       1

loop_
  _space_group_symop_operation_xyz
  'x, y, z'

loop_
  _atom_site_type_symbol
  _atom_site_label
  _atom_site_symmetry_multiplicity
  _atom_site_fract_x
  _atom_site_fract_y
  _atom_site_fract_z
  _atom_site_occupancy
  Hg  Hg1       1.0  0.3427905273316442  0.8315539194994133  0.7958012771985211  1.0000
  Hg  Hg2       1.0  0.5112290955598837  0.16877938887135713  0.704443867425425  1.0000
  Hg  Hg3       1.0  0.6572092768461957  0.16844793734885144  0.20420018893761951  1.0000
  Hg  Hg4       1.0  0.4887702188365068  0.8312214877102023  0.2955573015761814  1.0000
  H   H1        1.0  0.08665099436041147  0.5104174103544565  0.693864128420806  1.0000
  H   H2        1.0  0.576156711258804  0.4894788027683038  0.8062273056099514  1.0000
  H   H3        1.0  0.9133403980183986  0.4895824826557347  0.3061408020546211  1.0000
  H   H4        1.0  0.42384732725089697  0.5105191307790308  0.193773649317869  1.0000
  H   H5        1.0  0.8093546413859799  0.354825512911475  0.5775092100009402  1.0000
  H   H6        1.0  0.4544886050745875  0.6453320836130134  0.9224000972737086  1.0000
  H   H7        1.0  0.190645681150464  0.645172428959512  0.4224856552241859  1.0000
  H   H8        1.0  0.5455228370337579  0.35467074432629897  0.0776070800108428  1.0000
  H   H9        1.0  0.6509528261375337  0.4387446796452322  0.4853983725207272  1.0000
  H   H10       1.0  0.21242019332212442  0.5617456592623428  0.014510446923274868  1.0000
  H   H11       1.0  0.34904648831918195  0.5612562010929879  0.5145994135613492  1.0000
  H   H12       1.0  0.7875863225513485  0.43825227206122025  0.9854918614707202  1.0000
  H   H13       1.0  0.7788364827545494  0.6764966905057221  0.5158120255363627  1.0000
  H   H14       1.0  0.10250670016873903  0.32401016759747864  0.9842228473715906  1.0000
  H   H15       1.0  0.22116283167803635  0.32350418856983515  0.4841871137135243  1.0000
  H   H16       1.0  0.8974948609530601  0.6759877665109644  0.01577810725787289  1.0000
  H   H17       1.0  0.8775923602530682  0.9353274417461537  0.6157400218545703  1.0000
  H   H18       1.0  0.942292210631699  0.06499742409918241  0.8842635081703918  1.0000
  H   H19       1.0  0.12240992142127992  0.0646744220229962  0.3842553553247825  1.0000
  H   H20       1.0  0.057706124153504845  0.935001488623634  0.11573977289777562  1.0000
  H   H21       1.0  0.9739589691505589  0.8564699160852459  0.5141233805916273  1.0000
  H   H22       1.0  0.11743352798070825  0.14407170582320117  0.9859725690901512  1.0000
  H   H23       1.0  0.02604506944360452  0.14352802328141934  0.4858728382488521  1.0000
  H   H24       1.0  0.8825737083608516  0.8559301493417382  0.014028897941074134  1.0000
  H   H25       1.0  0.10012974936114459  0.0172402772225055  0.6050942665417766  1.0000
  H   H26       1.0  0.08309074160229095  0.9832064697448929  0.8952682461041161  1.0000
  H   H27       1.0  0.8998747790144819  0.9827586424108644  0.3949022494332439  1.0000
  H   H28       1.0  0.9169117990824276  0.0167934248969601  0.10473330279440769  1.0000
  C   C1        1.0  0.013175249273878495  0.5450361953208402  0.6550857780347811  1.0000
  C   C2        1.0  0.4678821839605122  0.4549748791459721  0.8448693777947865  1.0000
  C   C3        1.0  0.9868178716527396  0.4549646826634941  0.34491539022091894  1.0000
  C   C4        1.0  0.5321233523500482  0.5450210916441734  0.15513233633014073  1.0000
  C   C5        1.0  0.8578212894076602  0.45752727638790003  0.5890461770246063  1.0000
  C   C6        1.0  0.40015622291224423  0.542635569361174  0.910864288702129  1.0000
  C   C7        1.0  0.14217036219871906  0.5424706624589817  0.4109527466596886  1.0000
  C   C8        1.0  0.5998495439884054  0.4573633383529769  0.08914169959675183  1.0000
  C   C9        1.0  0.771592284220553  0.5046523548878457  0.5383612996503828  1.0000
  C   C10       1.0  0.2668790466579481  0.49567984920590674  0.961529880170758  1.0000
  C   C11       1.0  0.2284055323749783  0.49535048445090274  0.46163911015411674  1.0000
  C   C12       1.0  0.7331225143914539  0.5043180799145405  0.038475133962137406  1.0000
  C   C13       1.0  0.8421993589331722  0.6372951991333197  0.5554076435947053  1.0000
  C   C14       1.0  0.20482953244557933  0.3630487371551184  0.9445333804434596  1.0000
  C   C15       1.0  0.15779698828178113  0.36270469691130813  0.4445939045579124  1.0000
  C   C16       1.0  0.7951712797275263  0.6369501750065895  0.05546990092307174  1.0000
  C   C17       1.0  0.995424391308191  0.7197329431024289  0.6250008780038883  1.0000
  C   C18       1.0  0.2753135961670737  0.28039365221970775  0.8749233512186904  1.0000
  C   C19       1.0  0.004568988725331717  0.28026597240526746  0.3750010492997474  1.0000
  C   C20       1.0  0.7246839897538991  0.7196062443756974  0.12507752049920381  1.0000
  C   C21       1.0  0.06461395763395243  0.8631570164517375  0.6533754611095974  1.0000
  C   C22       1.0  0.2013158159067956  0.13702423078390072  0.8466873748952466  1.0000
  C   C23       1.0  0.9353846078861353  0.13684484317108314  0.34662397512564513  1.0000
  C   C24       1.0  0.7986884532895362  0.8629766463381049  0.1533124415352703  1.0000
  C   C25       1.0  0.0011507944982085227  0.9207131804125339  0.5929856984936989  1.0000
  C   C26       1.0  0.08049583933420482  0.07966565154997342  0.9071299185018302  1.0000
  C   C27       1.0  0.9988537338412228  0.07928573672683831  0.4070128472330339  1.0000
  C   C28       1.0  0.919507450299207  0.9203332650386216  0.09286930365962572  1.0000
  C   C29       1.0  0.692787126595249  0.7541546475976447  0.7896291219207754  1.0000
  C   C30       1.0  0.938333864106987  0.2455306048566684  0.7101645308990712  1.0000
  C   C31       1.0  0.30720619669425286  0.24585408666332856  0.2103635976211464  1.0000
  C   C32       1.0  0.06166225254199989  0.754466355926617  0.2898313899117895  1.0000
  C   C33       1.0  0.3685610915139463  0.8665079378205008  0.02212258599026743  1.0000
  C   C34       1.0  0.5026672469234725  0.1333792389123687  0.4779399812261715  1.0000
  C   C35       1.0  0.6314389717949282  0.13349195821379575  0.9778782860259909  1.0000
  C   C36       1.0  0.4973335653099655  0.866619677406  0.5220599172208225  1.0000
  S   S1        1.0  0.6033709253992185  0.8014297238047522  0.7156314903515977  1.0000
  S   S2        1.0  0.8020619949523394  0.1984790197049477  0.7843273201091419  1.0000
  S   S3        1.0  0.3966271219070663  0.19857606077133033  0.2843664277877878  1.0000
  S   S4        1.0  0.1979405458047765  0.8015208799249011  0.21567016928594998  1.0000
  S   S5        1.0  0.194995467888532  0.7795948930005782  0.9341861097092874  1.0000
  S   S6        1.0  0.41597668839106927  0.22051441782647888  0.5656507831985493  1.0000
  S   S7        1.0  0.8050070727841145  0.22040500080994727  0.0658161157731456  1.0000
  S   S8        1.0  0.5840208975299037  0.7794854787689263  0.4343500885193449  1.0000
  N   N1        1.0  0.07859277640162791  0.6722833955479928  0.6727608370833876  1.0000
  N   N2        1.0  0.40589638571611175  0.3277180707768679  0.8271981476183825  1.0000
  N   N3        1.0  0.9213983568461473  0.32771845827615925  0.3272446875119215  1.0000
  N   N4        1.0  0.5941017184548586  0.6722779033592731  0.1728022124436563  1.0000
  N   N5        1.0  0.1742142196983283  0.934057762110513  0.735420892961983  1.0000
  N   N6        1.0  0.2401091575485736  0.06608096937127783  0.7647241228095608  1.0000
  N   N7        1.0  0.825784115147208  0.0659411547689643  0.2645790051866612  1.0000
  N   N8        1.0  0.7598869590521531  0.9339159880866819  0.2352745043369282  1.0000
  N   N9        1.0  0.7643227003583135  0.7209218114752147  0.8390114264248539  1.0000
  N   N10       1.0  0.04282322347836502  0.2785764316167345  0.6606591150496683  1.0000
  N   N11       1.0  0.23567039222042743  0.27908397754841724  0.16098378478218217  1.0000
  N   N12       1.0  0.9571736421313873  0.7214195519446209  0.3393338024402226  1.0000
  N   N13       1.0  0.48950614909783513  0.9264474321360017  0.08729638383478296  1.0000
  N   N14       1.0  0.5636592996807084  0.07327485165188113  0.41287921422478036  1.0000
  N   N15       1.0  0.5104961324799788  0.0735544249824898  0.9127044060158125  1.0000
  N   N16       1.0  0.4363435001712404  0.9267230846700018  0.587119710802142  1.0000
