data_image0
_chemical_formula_structural       Cu16H120C192N16O96
_chemical_formula_sum              "Cu16 H120 C192 N16 O96"
_cell_length_a       18.778175761322675
_cell_length_b       18.778216186320417
_cell_length_c       35.09847410302571
_cell_angle_alpha    90.00009015219716
_cell_angle_beta     90.00010651380693
_cell_angle_gamma    90.00066320892333

_space_group_name_H-M_alt    "P 1"
_space_group_IT_number       1

loop_
  _space_group_symop_operation_xyz
  'x, y, z'

loop_
  _atom_site_type_symbol
  _atom_site_label
  _atom_site_symmetry_multiplicity
  _atom_site_fract_x
  _atom_site_fract_y
  _atom_site_fract_z
  _atom_site_occupancy
  Cu  Cu1       1.0  0.7399222599846808  0.3034482336353789  0.2236389954083648  1.0000
  Cu  Cu2       1.0  0.6965441078654421  0.7399159579623598  0.2236391592063143  1.0000
  Cu  Cu3       1.0  0.26007281175454006  0.6965504205704814  0.2236380681706365  1.0000
  Cu  Cu4       1.0  0.3034546915888967  0.2600795010750615  0.2236390440238765  1.0000
  Cu  Cu5       1.0  0.23992215221185376  0.19654601894491452  0.2763697677016025  1.0000
  Cu  Cu6       1.0  0.7600805575058586  0.8034485286645888  0.2763700003018101  1.0000
  Cu  Cu7       1.0  0.8034563766274588  0.23991601944791796  0.2763686428634315  1.0000
  Cu  Cu8       1.0  0.19654207285953618  0.7600849185177905  0.2763694156645542  1.0000
  Cu  Cu9       1.0  0.26008122388859073  0.6965496281100271  0.7763615268373911  1.0000
  Cu  Cu10      1.0  0.30345511573581513  0.2600803061642124  0.77636250268732  1.0000
  Cu  Cu11      1.0  0.7399216190999311  0.30345542909963524  0.776361029510639  1.0000
  Cu  Cu12      1.0  0.6965493248292987  0.7399204908007913  0.7763611933103789  1.0000
  Cu  Cu13      1.0  0.7600871895530473  0.8034561030924433  0.7236324640249093  1.0000
  Cu  Cu14      1.0  0.23991973115739273  0.19654667040590815  0.7236328012425872  1.0000
  Cu  Cu15      1.0  0.19654817229313437  0.7600791796410175  0.7236298849930307  1.0000
  Cu  Cu16      1.0  0.8034550206484355  0.2399182685109124  0.7236316764056171  1.0000
  H   H1        1.0  0.6924554536192318  0.40974019917729254  0.1748864701143944  1.0000
  H   H2        1.0  0.590252273762509  0.6924560247738396  0.1748791314917  1.0000
  H   H3        1.0  0.3075378517552494  0.5902583129950684  0.17488606976395  1.0000
  H   H4        1.0  0.4097484870662598  0.3075440850221509  0.1748828666222195  1.0000
  H   H5        1.0  0.19245534926633917  0.09024232079374164  0.3251225305155359  1.0000
  H   H6        1.0  0.8075464641373313  0.9097502387052426  0.3251211913609637  1.0000
  H   H7        1.0  0.9097599096166745  0.19245426352526343  0.3251235018245069  1.0000
  H   H8        1.0  0.09024083877505258  0.8075468164828408  0.3251230691817995  1.0000
  H   H9        1.0  0.3075469651809541  0.590255532438732  0.8251171861693081  1.0000
  H   H10       1.0  0.40974801490776963  0.3075418369493335  0.8251188265384214  1.0000
  H   H11       1.0  0.6924592418028936  0.4097528620161412  0.8251173016109803  1.0000
  H   H12       1.0  0.5902544642597363  0.6924521791201811  0.8251148064958826  1.0000
  H   H13       1.0  0.8075486671416315  0.9097560734854395  0.6748771369926985  1.0000
  H   H14       1.0  0.19245755223870023  0.09024229772420257  0.6748796157954615  1.0000
  H   H15       1.0  0.09024357426213918  0.8075441307541592  0.6748784449848344  1.0000
  H   H16       1.0  0.9097498642809537  0.19244731746373125  0.6748765983179865  1.0000
  H   H17       1.0  0.6980790893658478  0.3396249116094052  0.15152160973052986  1.0000
  H   H18       1.0  0.6603719631607561  0.6980788688541889  0.15151860917259796  1.0000
  H   H19       1.0  0.30191307005743795  0.6603729999588094  0.1515212633475969  1.0000
  H   H20       1.0  0.33962924932990995  0.3019206403585243  0.1515216996966942  1.0000
  H   H21       1.0  0.19807455216862022  0.16035980355692905  0.3484862568617046  1.0000
  H   H22       1.0  0.8019230818513705  0.8396333565120526  0.3484848525109853  1.0000
  H   H23       1.0  0.8396413503556559  0.19807423388856182  0.3484854534844857  1.0000
  H   H24       1.0  0.1603594789142946  0.8019279792411564  0.3484850860683011  1.0000
  H   H25       1.0  0.3019227969143116  0.6603740151906407  0.848478912514878  1.0000
  H   H26       1.0  0.3396272604516  0.3019205904578256  0.8484787790323338  1.0000
  H   H27       1.0  0.6980781656259721  0.339636577421409  0.848481253285719  1.0000
  H   H28       1.0  0.6603721043843648  0.6980729611173258  0.8484776828955064  1.0000
  H   H29       1.0  0.8019278666384652  0.8396380581823093  0.6515142653835184  1.0000
  H   H30       1.0  0.198075609189182  0.16035864735337665  0.6515150999045431  1.0000
  H   H31       1.0  0.1603600033965833  0.8019257579714673  0.651514498935768  1.0000
  H   H32       1.0  0.8396317567174592  0.1980736101553119  0.6515142965222438  1.0000
  H   H33       1.0  0.0216567857832501  0.24877703768841283  0.24283944835967466  1.0000
  H   H34       1.0  0.7512194168986283  0.021648397348563688  0.24284199532988276  1.0000
  H   H35       1.0  0.9783362222910342  0.7512216724406567  0.2428392846482978  1.0000
  H   H36       1.0  0.2487751887618614  0.9783471176026448  0.24283987171691024  1.0000
  H   H37       1.0  0.5216691857515414  0.2512035053145495  0.257163968420798  1.0000
  H   H38       1.0  0.4783286646944872  0.7487931164436925  0.2571633034696106  1.0000
  H   H39       1.0  0.7488051678076529  0.5216559612346215  0.2571616324981605  1.0000
  H   H40       1.0  0.25120493087558066  0.4783374653982687  0.25716250535761986  1.0000
  H   H41       1.0  0.9783472305770002  0.7512133686103437  0.7571593644071513  1.0000
  H   H42       1.0  0.24878406692989333  0.9783414764189043  0.7571593816504887  1.0000
  H   H43       1.0  0.021663533905574198  0.24878577485777936  0.7571609526869949  1.0000
  H   H44       1.0  0.7512160468893683  0.021657666986328587  0.7571600807003307  1.0000
  H   H45       1.0  0.47833909092633314  0.7487959540523546  0.7428351292646765  1.0000
  H   H46       1.0  0.5216636360285988  0.2512127332149277  0.7428363640359449  1.0000
  H   H47       1.0  0.2512036413786589  0.47833923787979404  0.7428374651857652  1.0000
  H   H48       1.0  0.7487894999732204  0.5216673192083758  0.7428368772358738  1.0000
  H   H49       1.0  0.1414144913838911  0.29078370184524255  0.14066784782581718  1.0000
  H   H50       1.0  0.7092259711282195  0.1414064520662492  0.1406700621783301  1.0000
  H   H51       1.0  0.8585882811271476  0.7092152432229212  0.14066297026204916  1.0000
  H   H52       1.0  0.29077254110267603  0.8585877002001181  0.14066787872214798  1.0000
  H   H53       1.0  0.6414097177148433  0.20919023930743913  0.35933996219152675  1.0000
  H   H54       1.0  0.3585890189986927  0.7908125379612653  0.35933835866639185  1.0000
  H   H55       1.0  0.7908031949706211  0.6414094743897248  0.3593359467195042  1.0000
  H   H56       1.0  0.20918276092194793  0.3585906401357376  0.3593358211394744  1.0000
  H   H57       1.0  0.8585889924427761  0.709206704450018  0.8593306800280729  1.0000
  H   H58       1.0  0.29078869592137113  0.8585876820227438  0.8593321695474501  1.0000
  H   H59       1.0  0.14141094254623  0.2907943341981393  0.8593358425105321  1.0000
  H   H60       1.0  0.7092107065176592  0.14141069396135456  0.8593334982517433  1.0000
  H   H61       1.0  0.35859110346621753  0.7908028296358719  0.6406611298762073  1.0000
  H   H62       1.0  0.6414075420261225  0.20919970210535865  0.6406613088440025  1.0000
  H   H63       1.0  0.20920082143796043  0.35858945241933066  0.6406622962256067  1.0000
  H   H64       1.0  0.7908132675030686  0.6414104167552849  0.6406627067152186  1.0000
  H   H65       1.0  0.9134374963984371  0.32405810615648517  0.1426196142149578  1.0000
  H   H66       1.0  0.6759417990889033  0.9134343322651399  0.1426206008231787  1.0000
  H   H67       1.0  0.08656475039680342  0.6759498976446563  0.1426196358954357  1.0000
  H   H68       1.0  0.324054057235756  0.08656089073274126  0.1426189341912689  1.0000
  H   H69       1.0  0.41343317022435844  0.17593176448310993  0.3573821993004387  1.0000
  H   H70       1.0  0.5865671572684407  0.8240630191152006  0.3573825611078689  1.0000
  H   H71       1.0  0.8240825277701519  0.41343753103809877  0.3573825051969308  1.0000
  H   H72       1.0  0.17591939734781187  0.5865625778847627  0.3573794060877233  1.0000
  H   H73       1.0  0.0865622596827791  0.6759301699881702  0.8573780588981563  1.0000
  H   H74       1.0  0.32406221731289253  0.08656299695015687  0.857379066684608  1.0000
  H   H75       1.0  0.9134350058224926  0.3240618099076825  0.8573794617909911  1.0000
  H   H76       1.0  0.6759398410291552  0.9134353733584462  0.8573795936603261  1.0000
  H   H77       1.0  0.5865639233043255  0.8240756827978399  0.6426166134701745  1.0000
  H   H78       1.0  0.4134325988603607  0.17593271248043146  0.64261767622245  1.0000
  H   H79       1.0  0.17593160677333938  0.5865624608934111  0.6426157377536796  1.0000
  H   H80       1.0  0.8240707731951958  0.41343528378109795  0.6426194066753581  1.0000
  H   H81       1.0  0.1082836810842309  0.2759975557353939  1.0260583280999997e-06  1.0000
  H   H82       1.0  0.7240075894898936  0.10827858544964636  6.923198868000001e-07  1.0000
  H   H83       1.0  0.8917176726675251  0.7240024361242162  0.9999986414492595  1.0000
  H   H84       1.0  0.27599482930695973  0.8917176786929201  0.9999992600993224  1.0000
  H   H85       1.0  0.6082816958040738  0.2240063562478695  0.4999999129934309  1.0000
  H   H86       1.0  0.39172072304061334  0.7759984284045911  0.4999991846913828  1.0000
  H   H87       1.0  0.775997229143833  0.6082802487215416  0.5000004448983972  1.0000
  H   H88       1.0  0.22400146192507717  0.3917170804612694  0.4999980829560471  1.0000
  H   H89       1.0  0.019184035517199  0.4526512891845799  0.0614302228685375  1.0000
  H   H90       1.0  0.5473515751749503  0.019185058018102594  0.0614320118127907  1.0000
  H   H91       1.0  0.980814202455889  0.5473500876915833  0.0614298883811699  1.0000
  H   H92       1.0  0.45265305314667614  0.9808067333258346  0.06143208821342939  1.0000
  H   H93       1.0  0.5191797927907444  0.047351591436999685  0.43857034231777453  1.0000
  H   H94       1.0  0.4808122952870021  0.9526551443290496  0.4385695681699673  1.0000
  H   H95       1.0  0.9526548748951243  0.5191933799618693  0.4385704742625407  1.0000
  H   H96       1.0  0.0473483964298325  0.48082187638251356  0.4385711457104264  1.0000
  H   H97       1.0  0.9808093302078474  0.547343377309758  0.9385697295454634  1.0000
  H   H98       1.0  0.452650311151686  0.9808207917026334  0.9385722143002867  1.0000
  H   H99       1.0  0.019182891026439098  0.45264883908072306  0.9385706338618506  1.0000
  H   H100      1.0  0.5473514957370539  0.0191804777917994  0.938571852980381  1.0000
  H   H101      1.0  0.48081037782154823  0.9526579859329088  0.5614293251882998  1.0000
  H   H102      1.0  0.5191869283560492  0.04734910777297329  0.5614295295130206  1.0000
  H   H103      1.0  0.047350739165992195  0.48081406737087906  0.5614300479883524  1.0000
  H   H104      1.0  0.9526540224393898  0.5191866359960499  0.5614296614519887  1.0000
  H   H105      1.0  0.9803231844234259  0.35117973465537483  0.0890244516965595  1.0000
  H   H106      1.0  0.648829768662864  0.9803233048362826  0.0890217044162611  1.0000
  H   H107      1.0  0.0196756816370893  0.6488281129896548  0.0890209646015521  1.0000
  H   H108      1.0  0.35117442264239435  0.019670164474547395  0.08902200240238048  1.0000
  H   H109      1.0  0.4803171322945801  0.14881730058299777  0.4109834117613573  1.0000
  H   H110      1.0  0.5196823157134602  0.8511834970077029  0.4109817354510241  1.0000
  H   H111      1.0  0.8511873444183989  0.4803211156866424  0.4109817433515772  1.0000
  H   H112      1.0  0.1488184939682498  0.5196764867493823  0.4109834038626373  1.0000
  H   H113      1.0  0.019674974144940897  0.6488218547865612  0.9109786347621593  1.0000
  H   H114      1.0  0.3511779755179205  0.019682544910054396  0.9109768234463189  1.0000
  H   H115      1.0  0.980321944372541  0.351169216192801  0.910981552029753  1.0000
  H   H116      1.0  0.6488274635699581  0.9803170466226945  0.9109785198380536  1.0000
  H   H117      1.0  0.5196762334485854  0.8511810936320497  0.5890145462655383  1.0000
  H   H118      1.0  0.4803201031086671  0.14881755992030316  0.5890167924068663  1.0000
  H   H119      1.0  0.14882252982547328  0.5196730183679816  0.5890159297690758  1.0000
  H   H120      1.0  0.8511796645797675  0.4803224400286793  0.5890168334682426  1.0000
  C   C1        1.0  0.891246742075161  0.2849191160053266  0.2154973985890507  1.0000
  C   C2        1.0  0.715077121197197  0.8912429936856721  0.2155012721368266  1.0000
  C   C3        1.0  0.1087477689514458  0.7150795144830294  0.21549890023838  1.0000
  C   C4        1.0  0.28492218261047236  0.10875137658149468  0.2154995852939194  1.0000
  C   C5        1.0  0.391248474544973  0.2150742255300385  0.2845043927770519  1.0000
  C   C6        1.0  0.6087526657183416  0.7849176831087302  0.28450502838158087  1.0000
  C   C7        1.0  0.7849368306596672  0.391244462025149  0.2845043792336384  1.0000
  C   C8        1.0  0.21507123256576927  0.6087533045034305  0.2845039022802566  1.0000
  C   C9        1.0  0.10875514418663099  0.7150771481325007  0.7845014141792035  1.0000
  C   C10       1.0  0.28492369999359823  0.10875167285389145  0.7845001048442554  1.0000
  C   C11       1.0  0.8912498571010801  0.2849263352051635  0.784499912531821  1.0000
  C   C12       1.0  0.7150786386023925  0.8912470176821042  0.7845020766014129  1.0000
  C   C13       1.0  0.6087555418702665  0.7849257663433206  0.7154941350811795  1.0000
  C   C14       1.0  0.3912460253668399  0.21508177620518149  0.7154957787751357  1.0000
  C   C15       1.0  0.21507464121171438  0.6087544648266457  0.7154935788025227  1.0000
  C   C16       1.0  0.7849242633414447  0.3912498825147778  0.7154963350511068  1.0000
  C   C17       1.0  0.15595094323454356  0.2509622186126421  0.2137584800080745  1.0000
  C   C18       1.0  0.7490340954558974  0.1559417158477458  0.2137624395470468  1.0000
  C   C19       1.0  0.8440483545467004  0.7490332116417021  0.21375704072041657  1.0000
  C   C20       1.0  0.25095295406386237  0.8440521167473418  0.2137582096027302  1.0000
  C   C21       1.0  0.6559522354023031  0.24902041134851763  0.2862490596155496  1.0000
  C   C22       1.0  0.3440446507119503  0.7509853481753835  0.2862474077255683  1.0000
  C   C23       1.0  0.7509797954628469  0.6559493896886153  0.2862464308236241  1.0000
  C   C24       1.0  0.24902188340522  0.3440494469444174  0.28624775721557677  1.0000
  C   C25       1.0  0.8440541382201233  0.7490329804802013  0.7862406176739895  1.0000
  C   C26       1.0  0.25097045345211905  0.8440502880544964  0.786239507260106  1.0000
  C   C27       1.0  0.15594980402178749  0.2509689103296893  0.7862443362625058  1.0000
  C   C28       1.0  0.7490324236972227  0.15594840755092318  0.7862408880717664  1.0000
  C   C29       1.0  0.34405124846024643  0.7509758527997973  0.7137506078915123  1.0000
  C   C30       1.0  0.6559524428357193  0.24902529429765952  0.713751689959075  1.0000
  C   C31       1.0  0.24902155828372935  0.344049537107935  0.7137538065088478  1.0000
  C   C32       1.0  0.750978937813933  0.6559505449125278  0.7137521952044139  1.0000
  C   C33       1.0  0.08789115147700238  0.2686306729079888  0.1936954730850005  1.0000
  C   C34       1.0  0.7313679465847757  0.08788506679700699  0.1936982817043713  1.0000
  C   C35       1.0  0.9121080768780913  0.731369491685079  0.19369294708072718  1.0000
  C   C36       1.0  0.268624891364091  0.9121119025752904  0.1936955517975605  1.0000
  C   C37       1.0  0.5878955037535362  0.23134797406908794  0.3063100042033611  1.0000
  C   C38       1.0  0.41210304937874287  0.7686530511191092  0.3063092900112565  1.0000
  C   C39       1.0  0.7686579373276673  0.5878876783224952  0.3063071118848768  1.0000
  C   C40       1.0  0.2313422133770189  0.41211015167622356  0.3063073388137809  1.0000
  C   C41       1.0  0.912112332341408  0.7313581357922699  0.8063036245935535  1.0000
  C   C42       1.0  0.26863766740174805  0.9121090672391854  0.8063036651042167  1.0000
  C   C43       1.0  0.08789274439813971  0.26864061827758673  0.8063061506055504  1.0000
  C   C44       1.0  0.7313610189422944  0.08789021932438597  0.8063052553539052  1.0000
  C   C45       1.0  0.41210904519565617  0.768651485278731  0.6936908029562757  1.0000
  C   C46       1.0  0.5878919140262012  0.23135546121547168  0.6936909473221037  1.0000
  C   C47       1.0  0.23134927426245605  0.4121080533146254  0.6936919857984805  1.0000
  C   C48       1.0  0.7686511524025192  0.5878941003923043  0.6936920437789595  1.0000
  C   C49       1.0  0.9607699779591101  0.2869420443704484  0.19466946317397324  1.0000
  C   C50       1.0  0.7130570569425386  0.9607628670199089  0.1946704805617827  1.0000
  C   C51       1.0  0.03922765618310109  0.7130602531805931  0.1946683294859284  1.0000
  C   C52       1.0  0.2869400446254033  0.03923197508247259  0.1946684517453718  1.0000
  C   C53       1.0  0.4607722916150933  0.213045179003636  0.3053349618112691  1.0000
  C   C54       1.0  0.5392262581087267  0.7869499854933153  0.30533467499412137  1.0000
  C   C55       1.0  0.7869651550789384  0.4607644194722053  0.3053343751514603  1.0000
  C   C56       1.0  0.21303978504161586  0.5392312775907653  0.3053332672686508  1.0000
  C   C57       1.0  0.03923297333027159  0.7130472968594928  0.8053302043298842  1.0000
  C   C58       1.0  0.28694429677481986  0.03923126698789049  0.8053289020306451  1.0000
  C   C59       1.0  0.960771567478936  0.28694719411351594  0.8053310531110893  1.0000
  C   C60       1.0  0.7130549187344146  0.9607690818032139  0.8053306459341343  1.0000
  C   C61       1.0  0.5392322573491412  0.7869574755329507  0.6946638509610281  1.0000
  C   C62       1.0  0.46076817271443105  0.2130505388569332  0.6946641377722216  1.0000
  C   C63       1.0  0.2130441866389887  0.5392307796440503  0.6946638677947163  1.0000
  C   C64       1.0  0.7869546458000369  0.4607724419511497  0.6946655454990491  1.0000
  C   C65       1.0  0.023265084782039498  0.2660922801601159  0.21328603499599547  1.0000
  C   C66       1.0  0.7339051266447711  0.023258630695813996  0.213287996022423  1.0000
  C   C67       1.0  0.9767315487247501  0.7339079414889437  0.21328386057859916  1.0000
  C   C68       1.0  0.2660893767263275  0.9767399933500579  0.21328531850247856  1.0000
  C   C69       1.0  0.523270463727897  0.23389254167835102  0.2867202325151155  1.0000
  C   C70       1.0  0.4767264239729129  0.7661052312404378  0.2867195806758502  1.0000
  C   C71       1.0  0.7661141513492353  0.5232622208104372  0.2867173426456517  1.0000
  C   C72       1.0  0.23389019180537224  0.47673501961416037  0.2867187666840891  1.0000
  C   C73       1.0  0.976738399069653  0.733901853861667  0.7867144872481757  1.0000
  C   C74       1.0  0.2660962270734474  0.9767349707833541  0.7867136658711402  1.0000
  C   C75       1.0  0.0232687400018676  0.26609897328062704  0.7867163767567362  1.0000
  C   C76       1.0  0.7339029239885021  0.023264258713552997  0.7867149188277409  1.0000
  C   C77       1.0  0.47673728041380775  0.7661063851535271  0.7132788651698618  1.0000
  C   C78       1.0  0.5232674743540143  0.23390115096061942  0.7132809415687404  1.0000
  C   C79       1.0  0.2338946578479337  0.4767351084305247  0.7132809003011715  1.0000
  C   C80       1.0  0.7661037065025694  0.5232681673948033  0.7132814706464783  1.0000
  C   C81       1.0  0.09073653144238142  0.2896693733168333  0.15550123043887248  1.0000
  C   C82       1.0  0.710337632608187  0.09073020763473486  0.1555045892353561  1.0000
  C   C83       1.0  0.9092652273639104  0.7103312125563332  0.155498398804454  1.0000
  C   C84       1.0  0.28966093097650253  0.909264520377668  0.1555013080826413  1.0000
  C   C85       1.0  0.5907370446853973  0.21031037163906763  0.34450510442669463  1.0000
  C   C86       1.0  0.40926164066472376  0.7896907648168038  0.344503265624553  1.0000
  C   C87       1.0  0.7896920119799873  0.590734238943348  0.344502516250138  1.0000
  C   C88       1.0  0.2103018805480232  0.40926423481758417  0.3445007253695138  1.0000
  C   C89       1.0  0.9092658873268603  0.7103226305676811  0.8444970125024938  1.0000
  C   C90       1.0  0.2896738392535739  0.909265524032847  0.8444984972275192  1.0000
  C   C91       1.0  0.09073506137404759  0.28967783234018896  0.8445012687064448  1.0000
  C   C92       1.0  0.7103249793047368  0.09073334126603068  0.8444992141543394  1.0000
  C   C93       1.0  0.409264841585518  0.7896869575651447  0.6554954178180381  1.0000
  C   C94       1.0  0.5907333227315875  0.21031668245181112  0.6554955471449941  1.0000
  C   C95       1.0  0.21031679721298957  0.40926202523537814  0.6554968663469154  1.0000
  C   C96       1.0  0.7896914852120317  0.5907368220584385  0.6554980873965306  1.0000
  C   C97       1.0  0.027848180000894698  0.30892746730153675  0.1367436966305391  1.0000
  C   C98       1.0  0.6910781769004828  0.0278428388577225  0.1367444780882821  1.0000
  C   C99       1.0  0.9721535139091059  0.6910794543105111  0.1367406265045332  1.0000
  C   C100      1.0  0.3089197892201767  0.9721534320971514  0.1367421243417724  1.0000
  C   C101      1.0  0.5278453400924902  0.19105794006916443  0.3632608659761516  1.0000
  C   C102      1.0  0.4721539426984761  0.8089395233073231  0.3632605308833731  1.0000
  C   C103      1.0  0.808947544531989  0.5278428874683809  0.3632602946517309  1.0000
  C   C104      1.0  0.19104907558858744  0.47215457588855236  0.3632582530797634  1.0000
  C   C105      1.0  0.9721553038405659  0.6910650691235813  0.8632562557876113  1.0000
  C   C106      1.0  0.3089295672364116  0.9721544903820528  0.8632571838100559  1.0000
  C   C107      1.0  0.027846242297364696  0.30893012311363316  0.8632581862683111  1.0000
  C   C108      1.0  0.6910703813181485  0.027843364506061587  0.8632575431588732  1.0000
  C   C109      1.0  0.4721544160635601  0.8089425843135626  0.6367390864435336  1.0000
  C   C110      1.0  0.5278436833406133  0.19106366372280087  0.6367394215363761  1.0000
  C   C111      1.0  0.19106286225409258  0.472152311655705  0.6367390879456636  1.0000
  C   C112      1.0  0.8089432251114489  0.5278475460452013  0.6367405596861957  1.0000
  C   C113      1.0  0.9629986871719184  0.3083971813244871  0.1565663924516443  1.0000
  C   C114      1.0  0.6916039082890248  0.9629934636755515  0.15656625019924766  1.0000
  C   C115      1.0  0.037003607877231594  0.6916071353791792  0.1565640986589401  1.0000
  C   C116      1.0  0.3083925288492678  0.03700233248515868  0.1565656654681504  1.0000
  C   C117      1.0  0.46299609157288285  0.19158847022107744  0.3434366101921212  1.0000
  C   C118      1.0  0.537002057517732  0.8084073378022364  0.3434366243011198  1.0000
  C   C119      1.0  0.808421524759453  0.4629975055984658  0.3434354733728071  1.0000
  C   C120      1.0  0.19157822196606838  0.537005225345652  0.3434351969101427  1.0000
  C   C121      1.0  0.03700266652127479  0.691592692428159  0.8434332750516444  1.0000
  C   C122      1.0  0.3084006406417926  0.0370033330100483  0.8434328474832355  1.0000
  C   C123      1.0  0.9629966808649184  0.3084029745795788  0.8434344292017284  1.0000
  C   C124      1.0  0.6915992392985686  0.9629960617239702  0.8434345718593123  1.0000
  C   C125      1.0  0.5370047296689506  0.8084157818897706  0.6565622025789962  1.0000
  C   C126      1.0  0.4629950359697759  0.1915926540331298  0.6565633281170092  1.0000
  C   C127      1.0  0.1915904796383572  0.5370003561920952  0.6565621997504963  1.0000
  C   C128      1.0  0.8084114160751669  0.46299796163700063  0.6565639007676083  1.0000
  C   C129      1.0  0.0151404680393057  0.46347009531092426  4.893942247e-07  1.0000
  C   C130      1.0  0.5365314380719894  0.015139260727813991  2.553552676e-06  1.0000
  C   C131      1.0  0.9848538295228977  0.53652630979969  0.9999998648333276  1.0000
  C   C132      1.0  0.4634713800152497  0.9848550143109729  2.3592809554999994e-06  1.0000
  C   C133      1.0  0.5151395079278344  0.03653220599167639  0.49999950193130616  1.0000
  C   C134      1.0  0.48485385787179064  0.9634757737992241  0.49999902592499984  1.0000
  C   C135      1.0  0.963473900100894  0.5151473543335071  0.5000004989093014  1.0000
  C   C136      1.0  0.03653118144611509  0.484863288188251  0.5000003082553519  1.0000
  C   C137      1.0  0.08078024037436651  0.3271231259909299  7.491396019000001e-07  1.0000
  C   C138      1.0  0.6728821233710744  0.08077887241889668  1.5098533908e-06  1.0000
  C   C139      1.0  0.9192189832331793  0.6728747357289889  0.9999992032786835  1.0000
  C   C140      1.0  0.32712229234441276  0.9192212604763834  5.538568216999999e-07  1.0000
  C   C141      1.0  0.5807803259638931  0.17287887005004166  0.5000001624547538  1.0000
  C   C142      1.0  0.41921943021372954  0.8271253820563087  0.4999997899665162  1.0000
  C   C143      1.0  0.8271250396097328  0.5807795298950892  0.49999988890958486  1.0000
  C   C144      1.0  0.172876314138442  0.4192199294321667  0.49999949368510954  1.0000
  C   C145      1.0  0.0302333711642291  0.42739066050614105  0.0341133605937358  1.0000
  C   C146      1.0  0.5726133641281946  0.030234669772248392  0.0341146022349008  1.0000
  C   C147      1.0  0.969762642101166  0.5726090391799514  0.0341110421509114  1.0000
  C   C148      1.0  0.42739063710399705  0.9697586395829558  0.034114074201085  1.0000
  C   C149      1.0  0.5302311129936895  0.07261181549473857  0.4658880703623396  1.0000
  C   C150      1.0  0.46976426485387185  0.9273960649347683  0.465886978805436  1.0000
  C   C151      1.0  0.927394811419653  0.5302390511720887  0.46588817814203765  1.0000
  C   C152      1.0  0.07260908697315929  0.4697709594374188  0.46588886541958624  1.0000
  C   C153      1.0  0.969760527105123  0.5726056035887763  0.965887731471895  1.0000
  C   C154      1.0  0.42739065230713896  0.9697669197060814  0.9658901937027692  1.0000
  C   C155      1.0  0.030233918851642703  0.4273904201216323  0.9658897650047392  1.0000
  C   C156      1.0  0.5726128467273597  0.03023070165754399  0.9658907217311138  1.0000
  C   C157      1.0  0.4697606552133208  0.927397229351228  0.5341107424062982  1.0000
  C   C158      1.0  0.5302338937255868  0.07260871969261729  0.5341118339645802  1.0000
  C   C159      1.0  0.07260920502936587  0.46976626602322097  0.5341120591944843  1.0000
  C   C160      1.0  0.9273933318914941  0.5302370204079591  0.5341110870045895  1.0000
  C   C161      1.0  0.06232342622227089  0.36010916290926076  0.03430452442692909  1.0000
  C   C162      1.0  0.6398975087489589  0.06232330437831728  0.0343061107698972  1.0000
  C   C163      1.0  0.9376741853056743  0.639890537344257  0.0343030858608273  1.0000
  C   C164      1.0  0.3601086232902162  0.9376721356743469  0.0343052033850313  1.0000
  C   C165      1.0  0.5623192835030366  0.13989102186967264  0.4656963687384775  1.0000
  C   C166      1.0  0.43767822378895715  0.8601125977584162  0.46569547288623175  1.0000
  C   C167      1.0  0.8601137008693415  0.5623237112152707  0.46569527231180524  1.0000
  C   C168      1.0  0.13988646906814486  0.4376767132353051  0.4656957145748565  1.0000
  C   C169      1.0  0.9376720696464816  0.6398876337243562  0.9656948581637012  1.0000
  C   C170      1.0  0.3601075727635319  0.9376809477621677  0.9656961209553998  1.0000
  C   C171      1.0  0.062323440725769785  0.36011158462073195  0.9656960118204552  1.0000
  C   C172      1.0  0.6398943280036066  0.062317205559331484  0.9656970283328618  1.0000
  C   C173      1.0  0.4376714196371693  0.8601174904402594  0.534303868592751  1.0000
  C   C174      1.0  0.5623231299848611  0.1398911218252293  0.5343044795356136  1.0000
  C   C175      1.0  0.1398887179393498  0.4376746830546664  0.5343043951956332  1.0000
  C   C176      1.0  0.8601143521643239  0.5623254087502474  0.5343048076713757  1.0000
  C   C177      1.0  0.08001562841683808  0.32403081245463017  0.0713300591586474  1.0000
  C   C178      1.0  0.6759730644733962  0.08001427833281838  0.0713319624367088  1.0000
  C   C179      1.0  0.9199890342294452  0.6759721908915493  0.0713277788554123  1.0000
  C   C180      1.0  0.3240278704116548  0.9199823346146656  0.0713301492628347  1.0000
  C   C181      1.0  0.5800112426169192  0.17597117471031956  0.428671136582807  1.0000
  C   C182      1.0  0.41998879916830123  0.8240318045407234  0.4286707622341908  1.0000
  C   C183      1.0  0.8240303619193907  0.5800136271491921  0.4286702904121142  1.0000
  C   C184      1.0  0.17595530147259097  0.41999041707754253  0.4286681894461068  1.0000
  C   C185      1.0  0.9199835951533545  0.6759611914109765  0.9286678988684542  1.0000
  C   C186      1.0  0.32402669169991327  0.919988376181841  0.9286708391105876  1.0000
  C   C187      1.0  0.08001391715659169  0.3240341913589901  0.9286707490050007  1.0000
  C   C188      1.0  0.6759702881096104  0.08001179937671306  0.9286706578913452  1.0000
  C   C189      1.0  0.419982655757714  0.8240431954711623  0.5713302404031922  1.0000
  C   C190      1.0  0.5800120220677414  0.17597084997719745  0.5713300449249417  1.0000
  C   C191      1.0  0.17596726409972518  0.4199863646880144  0.5713288072682658  1.0000
  C   C192      1.0  0.824038064303366  0.5800133024586245  0.5713309082337332  1.0000
  N   N1        1.0  0.027414229608083904  0.3314327416538204  0.0985115595853827  1.0000
  N   N2        1.0  0.6685780525676749  0.027412899666607884  0.0985117504581368  1.0000
  N   N3        1.0  0.9725867994222738  0.6685740685791614  0.09850932550570231  1.0000
  N   N4        1.0  0.3314245739976087  0.9725821948757126  0.09851112901746717  1.0000
  N   N5        1.0  0.5274075338389465  0.16855745345692694  0.40149157802483865  1.0000
  N   N6        1.0  0.4725908162454573  0.8314433164764877  0.40149012283986707  1.0000
  N   N7        1.0  0.8314460662794828  0.5274122550216018  0.40148988787605333  1.0000
  N   N8        1.0  0.168551218729732  0.47258798236872906  0.4014883940358374  1.0000
  N   N9        1.0  0.9725839289230436  0.668563522463266  0.9014878230063486  1.0000
  N   N10       1.0  0.33143182172526053  0.9725886898402292  0.9014893416177401  1.0000
  N   N11       1.0  0.027414554350556793  0.3314296510036597  0.9014900570907969  1.0000
  N   N12       1.0  0.6685698567832645  0.02741034149866549  0.901489963046849  1.0000
  N   N13       1.0  0.4725863644576549  0.8314436034250858  0.5985092291301655  1.0000
  N   N14       1.0  0.5274105375299669  0.16856093563785624  0.5985089748441865  1.0000
  N   N15       1.0  0.16856327544201832  0.47258347662702227  0.5985086399830237  1.0000
  N   N16       1.0  0.8314432120913294  0.527412009450401  0.598510988555617  1.0000
  O   O1        1.0  0.8377992084308302  0.31546002387725025  0.2001152346989699  1.0000
  O   O2        1.0  0.6845338822548755  0.8377899004734884  0.2001210783802705  1.0000
  O   O3        1.0  0.1621952493154168  0.6845321714208907  0.2001196128776641  1.0000
  O   O4        1.0  0.31546004296777136  0.1622028273589108  0.2001174730610416  1.0000
  O   O5        1.0  0.3377947828149814  0.18454068693706915  0.29988821278472944  1.0000
  O   O6        1.0  0.6622037480552193  0.8154549942230032  0.2998869333123011  1.0000
  O   O7        1.0  0.8154741255318712  0.33778910446934407  0.2998850973882057  1.0000
  O   O8        1.0  0.18453665360240018  0.6622087068815142  0.2998846353751006  1.0000
  O   O9        1.0  0.1622069380844806  0.6845346426877439  0.799882438420049  1.0000
  O   O10       1.0  0.31546693893839256  0.16220476606815024  0.7998817231641624  1.0000
  O   O11       1.0  0.8377975838804801  0.31546249507368157  0.7998826188374437  1.0000
  O   O12       1.0  0.6845466360972737  0.8377934368112248  0.799884473748989  1.0000
  O   O13       1.0  0.6622124287767405  0.8154555772307501  0.7001100301608361  1.0000
  O   O14       1.0  0.3377933454214385  0.18454286748583115  0.7001138738429304  1.0000
  O   O15       1.0  0.1845357487161863  0.6622060946475086  0.7001114360822172  1.0000
  O   O16       1.0  0.8154567121680072  0.3377944801206353  0.7001130377411542  1.0000
  O   O17       1.0  0.21330695771192862  0.2683113509829552  0.196384256427713  1.0000
  O   O18       1.0  0.7316897945346382  0.21329954094835551  0.1963850616386793  1.0000
  O   O19       1.0  0.786690149834115  0.731690951561205  0.19638359987648357  1.0000
  O   O20       1.0  0.2682955972372696  0.7866953060782718  0.19638108518047653  1.0000
  O   O21       1.0  0.7133160972706847  0.23168365863297408  0.3036219159021982  1.0000
  O   O22       1.0  0.28668351167979716  0.768327476836454  0.3036205063926687  1.0000
  O   O23       1.0  0.7683220976573322  0.7133095962927526  0.3036238574735748  1.0000
  O   O24       1.0  0.23167644614967034  0.28668716081295986  0.30362198376669614  1.0000
  O   O25       1.0  0.7866965260973585  0.731676392650918  0.8036131317743622  1.0000
  O   O26       1.0  0.2683158194386976  0.7866929954886783  0.803614605867864  1.0000
  O   O27       1.0  0.2133101388594696  0.2683095728283361  0.8036189167575073  1.0000
  O   O28       1.0  0.73167966239334  0.21330628321868508  0.8036134538866904  1.0000
  O   O29       1.0  0.28669004928308073  0.7683173983166113  0.6963766119575538  1.0000
  O   O30       1.0  0.7133109191376903  0.2316719824503152  0.6963785912858924  1.0000
  O   O31       1.0  0.23167712595872564  0.2866887979636771  0.6963792289843198  1.0000
  O   O32       1.0  0.768333960668592  0.7133128311023639  0.6963799630467733  1.0000
  O   O33       1.0  0.15187961352056334  0.22147754629772715  0.24635475429646897  1.0000
  O   O34       1.0  0.7785109000304898  0.15187232479865995  0.2463584564675969  1.0000
  O   O35       1.0  0.8481229922832156  0.778515316275161  0.24635391395475642  1.0000
  O   O36       1.0  0.22147572981567268  0.8481253304755041  0.24635448546775507  1.0000
  O   O37       1.0  0.6518806015801956  0.2785007762783209  0.25365192652262175  1.0000
  O   O38       1.0  0.3481113789195192  0.7215091485119698  0.2536502536449703  1.0000
  O   O39       1.0  0.7214981509701985  0.651876899794999  0.2536512651792719  1.0000
  O   O40       1.0  0.2785076753193891  0.34812024431163735  0.2536529093784949  1.0000
  O   O41       1.0  0.8481281306348195  0.7785229781337218  0.7536469076032333  1.0000
  O   O42       1.0  0.2214936488919506  0.8481223417624758  0.7536429205153468  1.0000
  O   O43       1.0  0.15187836148530207  0.22148680571596904  0.7536483177677695  1.0000
  O   O44       1.0  0.778519233553773  0.15187679147697958  0.7536466066009027  1.0000
  O   O45       1.0  0.34812181722849533  0.721497617991616  0.7463477409848166  1.0000
  O   O46       1.0  0.6518830520425781  0.2785164048347396  0.7463451401799616  1.0000
  O   O47       1.0  0.2785016051724157  0.348120961929659  0.7463498268899684  1.0000
  O   O48       1.0  0.7214851579163267  0.6518824101567301  0.7463456184752886  1.0000
  O   O49       1.0  0.8913110408993177  0.25162739555127445  0.2472728399194679  1.0000
  O   O50       1.0  0.7483663526991152  0.8913097991304395  0.2472787386144404  1.0000
  O   O51       1.0  0.10868198250423688  0.7483670672433004  0.24727664909411826  1.0000
  O   O52       1.0  0.2516415816550505  0.10868626135872007  0.24727929778738658  1.0000
  O   O53       1.0  0.3913189065690544  0.24836221903817082  0.2527275269489521  1.0000
  O   O54       1.0  0.6086853188734338  0.7516264018563913  0.252728704021159  1.0000
  O   O55       1.0  0.7516396119353315  0.3913107895234517  0.25272890719729446  1.0000
  O   O56       1.0  0.24836408102535049  0.6086863518808129  0.2527284634268483  1.0000
  O   O57       1.0  0.1086903127853702  0.748361945664861  0.7527236935442119  1.0000
  O   O58       1.0  0.2516355335716725  0.10868699754431786  0.7527234931060889  1.0000
  O   O59       1.0  0.8913161761019738  0.25164251017076816  0.7527215938525913  1.0000
  O   O60       1.0  0.7483613696947415  0.8913126654503991  0.752723218847251  1.0000
  O   O61       1.0  0.6086829797409407  0.7516420330805074  0.7472724254733834  1.0000
  O   O62       1.0  0.391314437272257  0.24837199240020877  0.7472723880483088  1.0000
  O   O63       1.0  0.24836440446597408  0.6086865396914262  0.7472704753978192  1.0000
  O   O64       1.0  0.7516415330129574  0.39131630266857786  0.7472749079487144  1.0000
  O   O65       1.0  0.6794256764584857  0.35957241959599157  0.1750890152035467  1.0000
  O   O66       1.0  0.6404162833743995  0.679415673115798  0.17508200881285774  1.0000
  O   O67       1.0  0.3205702922776509  0.6404255606483031  0.175087530843193  1.0000
  O   O68       1.0  0.3595818154541632  0.32057804687239866  0.1750857049403365  1.0000
  O   O69       1.0  0.17941976170239832  0.14040941698689827  0.324919972415131  1.0000
  O   O70       1.0  0.8205777907383691  0.8595836744292382  0.32491860364150676  1.0000
  O   O71       1.0  0.8595941514483838  0.17941120048087095  0.3249220379832423  1.0000
  O   O72       1.0  0.1404065962343353  0.8205882813425018  0.3249202419424222  1.0000
  O   O73       1.0  0.3205826001954789  0.6404217144572611  0.8249140712570622  1.0000
  O   O74       1.0  0.359582407682801  0.32058005846910476  0.8249150944775536  1.0000
  O   O75       1.0  0.6794236060809594  0.3595856143435795  0.8249152707048069  1.0000
  O   O76       1.0  0.6404216683956818  0.6794166196771839  0.8249119681773537  1.0000
  O   O77       1.0  0.8205874499031294  0.859588977309947  0.6750791252693631  1.0000
  O   O78       1.0  0.1794219653740399  0.14040939450583065  0.6750810638623435  1.0000
  O   O79       1.0  0.1404114625258188  0.8205808034275318  0.6750799088244435  1.0000
  O   O80       1.0  0.8595825092890905  0.17941703576733653  0.6750805652119922  1.0000
  O   O81       1.0  0.13665460634131676  0.29206005940896057  0.0761596285307391  1.0000
  O   O82       1.0  0.7079408296302887  0.13665616571149997  0.0761612722317224  1.0000
  O   O83       1.0  0.863347410345625  0.7079408278634103  0.07615731884879297  1.0000
  O   O84       1.0  0.29205745931095345  0.8633415263513485  0.0761582393586266  1.0000
  O   O85       1.0  0.636647911231897  0.20794311588458203  0.4238424784926949  1.0000
  O   O86       1.0  0.36335104877473157  0.7920603818253579  0.4238420204323177  1.0000
  O   O87       1.0  0.7920600571718026  0.6366503376232299  0.4238410287468071  1.0000
  O   O88       1.0  0.2079128086453892  0.36334304182083327  0.4238380568201308  1.0000
  O   O89       1.0  0.8633408894516209  0.7079244889857604  0.923836904927981  1.0000
  O   O90       1.0  0.2920546663060222  0.8633512815660108  0.9238415293154816  1.0000
  O   O91       1.0  0.13666086643309677  0.29207673758632763  0.9238394995430069  1.0000
  O   O92       1.0  0.7079348413480275  0.1366536726662773  0.9238400035790448  1.0000
  O   O93       1.0  0.36333586910731697  0.7920866976680826  0.5761611777961875  1.0000
  O   O94       1.0  0.6366519025808514  0.20794014257668883  0.5761585018143052  1.0000
  O   O95       1.0  0.2079322434784245  0.3633432637989812  0.5761574991028624  1.0000
  O   O96       1.0  0.7920805571213235  0.6366590801194999  0.5761610408590342  1.0000
