data_image0
_chemical_formula_structural       Ni2H12C8N28
_chemical_formula_sum              "Ni2 H12 C8 N28"
_cell_length_a       6.433050660509289
_cell_length_b       9.515689279584539
_cell_length_c       9.814591886337757
_cell_angle_alpha    67.49405668451493
_cell_angle_beta     81.09289841896938
_cell_angle_gamma    67.11258911749896

_space_group_name_H-M_alt    "P 1"
_space_group_IT_number       1

loop_
  _space_group_symop_operation_xyz
  'x, y, z'

loop_
  _atom_site_type_symbol
  _atom_site_label
  _atom_site_symmetry_multiplicity
  _atom_site_fract_x
  _atom_site_fract_y
  _atom_site_fract_z
  _atom_site_occupancy
  Ni  Ni1       1.0  0.9999998289337245  0.9999988428193585  1.4355088140420281e-06  1.0000
  Ni  Ni2       1.0  0.49999776234187016  1.8501418710993184e-07  0.4999992632202392  1.0000
  H   H1        1.0  0.5380766885934279  0.8741488190965965  0.06397780351408502  1.0000
  H   H2        1.0  0.4619258351852763  0.12584754768104736  0.9360252373486305  1.0000
  H   H3        1.0  0.9114480437860025  0.6181095746529689  0.09943672173631782  1.0000
  H   H4        1.0  0.08855554043871909  0.3818880463489619  0.9005648385463588  1.0000
  H   H5        1.0  0.878174799169166  0.43344735580429716  0.11882743485834624  1.0000
  H   H6        1.0  0.12182965681045499  0.5665513444287668  0.8811757768743719  1.0000
  H   H7        1.0  0.7877237214780028  0.21457897526902053  0.280610418858906  1.0000
  H   H8        1.0  0.21227126186678194  0.7854236667254993  0.71938909875702  1.0000
  H   H9        1.0  0.8123279230375361  0.5731343865942902  0.36661631097993563  1.0000
  H   H10       1.0  0.18766928914853767  0.42686707306589255  0.6333824122901461  1.0000
  H   H11       1.0  0.05971171885918385  0.41597829746147846  0.33613587670517836  1.0000
  H   H12       1.0  0.9402923866661302  0.5840180469300901  0.6638670707046259  1.0000
  C   C1        1.0  0.4646653957770685  0.7838943237111945  0.08038536363102378  1.0000
  C   C2        1.0  0.5353366067010443  0.21610331967681154  0.9196162901045639  1.0000
  C   C3        1.0  0.821654313806704  0.5348528195946611  0.16001388035137865  1.0000
  C   C4        1.0  0.178344543023023  0.4651486760104999  0.839983705455758  1.0000
  C   C5        1.0  0.7375071643334153  0.2398900376444857  0.38204863788332233  1.0000
  C   C6        1.0  0.26248827741491004  0.7601112694086253  0.6179533108697441  1.0000
  C   C7        1.0  0.8753478832982469  0.47338447818492546  0.32332641090153663  1.0000
  C   C8        1.0  0.12465611427783327  0.5266155569895474  0.6766743696940339  1.0000
  N   N1        1.0  0.2489708832790499  0.1518508997808254  0.22358614885040848  1.0000
  N   N2        1.0  0.7510334018542936  0.8481514329041031  0.7764159400781027  1.0000
  N   N3        1.0  0.18665185627963143  0.1034309353472977  0.7228428320018665  1.0000
  N   N4        1.0  0.8133464614046628  0.8965680294232142  0.27715762151242984  1.0000
  N   N5        1.0  0.5821128583893656  0.6230122264181474  0.12694660893488677  1.0000
  N   N6        1.0  0.4178891440887469  0.3769854169698589  0.873055044800708  1.0000
  N   N7        1.0  0.6362872562148708  0.1630954663018613  0.4980185384750229  1.0000
  N   N8        1.0  0.36371011773438516  0.8369081742066696  0.5019835811480463  1.0000
  N   N9        1.0  0.2521309295023427  0.804741501569218  0.06415831644987696  1.0000
  N   N10       1.0  0.7478722413710274  0.1952537052601713  0.9358440235199126  1.0000
  N   N11       1.0  0.38404083289473334  0.1575337234778615  0.2901005367167144  1.0000
  N   N12       1.0  0.6159532786951518  0.8424678392855184  0.70989732944917  1.0000
  N   N13       1.0  0.7730062487880076  0.3540978851215256  0.4135701380746468  1.0000
  N   N14       1.0  0.22699358774585948  0.6459009989318644  0.5864312659967653  1.0000
  N   N15       1.0  0.693927740184975  0.3468909558777467  0.5513894496872993  1.0000
  N   N16       1.0  0.30606999330169077  0.6531092271720808  0.44861066070990324  1.0000
  N   N17       1.0  0.61154062474251  0.2315357664131668  0.601215616703243  1.0000
  N   N18       1.0  0.38845646164947595  0.7684655765849226  0.39878519458688544  1.0000
  N   N19       1.0  0.20331312252500322  0.12232736114417968  0.5964959380249724  1.0000
  N   N20       1.0  0.7966840896610707  0.8776740985160031  0.4035027852451024  1.0000
  N   N21       1.0  0.44035009595047114  0.5436367651460613  0.14047045332375066  1.0000
  N   N22       1.0  0.5596536769653825  0.45636103084901675  0.8595279749288594  1.0000
  N   N23       1.0  0.24214185588154194  0.6535258897162846  0.10295067207850661  1.0000
  N   N24       1.0  0.7578613328366827  0.3464731245581021  0.8970474130570025  1.0000
  N   N25       1.0  0.17912854563517303  0.09415866268162887  0.848410743060839  1.0000
  N   N26       1.0  0.8208714166927823  0.9058403380338614  0.15158857299051937  1.0000
  N   N27       1.0  0.11436953039100932  0.15350464617191759  0.1529212472678836  1.0000
  N   N28       1.0  0.8856262258425364  0.8464969525364407  0.8470754814350627  1.0000
