data_image0
_chemical_formula_structural       Zn2H26C41N2O9
_chemical_formula_sum              "Zn2 H26 C41 N2 O9"
_cell_length_a       13.394767383166636
_cell_length_b       13.940626689451006
_cell_length_c       15.316938822545845
_cell_angle_alpha    90.96248000417881
_cell_angle_beta     91.67411912791121
_cell_angle_gamma    68.3921058885058

_space_group_name_H-M_alt    "P 1"
_space_group_IT_number       1

loop_
  _space_group_symop_operation_xyz
  'x, y, z'

loop_
  _atom_site_type_symbol
  _atom_site_label
  _atom_site_symmetry_multiplicity
  _atom_site_fract_x
  _atom_site_fract_y
  _atom_site_fract_z
  _atom_site_occupancy
  Zn  Zn1       1.0  0.505900509705782  0.3970111288307621  0.5022916724170942  1.0000
  Zn  Zn2       1.0  0.48996871065031644  0.600870675313125  0.505693504321961  1.0000
  H   H1        1.0  0.14371086092692315  0.7427702514377613  0.4087133144215613  1.0000
  H   H2        1.0  0.6524560655558106  0.6958195347740453  0.5519754424864018  1.0000
  H   H3        1.0  0.3416137560353505  0.8058353089628483  0.45111305392830303  1.0000
  H   H4        1.0  0.8007179420218619  0.7117508612503658  0.3600898199093905  1.0000
  H   H5        1.0  0.3375414342043471  0.986980636526688  0.4446577463417683  1.0000
  H   H6        1.0  0.4069094323019726  0.09925799370433452  0.37895682528909463  1.0000
  H   H7        1.0  0.41206460300314507  0.27742959219844465  0.38660035502184104  1.0000
  H   H8        1.0  0.587239253078984  0.21570031598129447  0.6189713505236512  1.0000
  H   H9        1.0  0.5909971115458389  0.0343568878015503  0.6221256219970357  1.0000
  H   H10       1.0  0.9529482429967899  0.7720818226381994  0.36695534963300963  1.0000
  H   H11       1.0  0.1880714287014271  0.44378152373865737  0.5044007408208486  1.0000
  H   H12       1.0  0.5623532090265684  0.33054681332141905  0.779445166411506  1.0000
  H   H13       1.0  0.8570434297344889  0.2500981383182577  0.5342949630912416  1.0000
  H   H14       1.0  0.13467235466471547  0.331272743180385  0.5049126114356639  1.0000
  H   H15       1.0  0.721566780362977  0.5855972536806817  0.4027499517853315  1.0000
  H   H16       1.0  0.5659960163829824  0.32883134350353777  0.9423472736678989  1.0000
  H   H17       1.0  0.19844117823275553  0.1990190600048081  0.6008728345843722  1.0000
  H   H18       1.0  0.20967083136606846  0.1570623593444012  0.4890739547274593  1.0000
  H   H19       1.0  0.20724976032075654  0.070354897606336  0.5739729054345374  1.0000
  H   H20       1.0  0.4530601857232099  0.6604005884455191  0.7821202658769196  1.0000
  H   H21       1.0  0.4537351450673056  0.6608761580666355  0.9452510375337441  1.0000
  H   H22       1.0  0.5686727679566204  0.6179198761623467  0.0700499156222634  1.0000
  H   H23       1.0  0.5609510625639017  0.6180241720149837  0.23272609869591324  1.0000
  H   H24       1.0  0.4446925549646891  0.37006380676095313  0.22018824949412877  1.0000
  H   H25       1.0  0.4472440101370196  0.3713424650876931  0.0574447331267152  1.0000
  H   H26       1.0  0.6628162808204221  0.8718865666356236  0.5509034818400877  1.0000
  C   C1        1.0  0.5036550180666453  0.4959098835367541  0.6733711897298988  1.0000
  C   C2        1.0  0.8254106001543137  0.40281930895231005  0.48701043413763057  1.0000
  C   C3        1.0  0.5398582756150958  0.4019882045706567  0.9076067418935454  1.0000
  C   C4        1.0  0.7065910387490888  0.4320611245894881  0.49663463950561504  1.0000
  C   C5        1.0  0.5387054898678157  0.4023596444839654  0.8167932997297598  1.0000
  C   C6        1.0  0.5072477359889122  0.4955228509283955  0.7711763175901896  1.0000
  C   C7        1.0  0.4780959020312706  0.5883884526915821  0.8183431351237616  1.0000
  C   C8        1.0  0.47940614009177535  0.587999994262958  0.9092146232087119  1.0000
  C   C9        1.0  0.5097085722496076  0.49489718857709153  0.9555609048201745  1.0000
  C   C10       1.0  0.5396960161103477  0.5643983759001686  0.1024368304898147  1.0000
  C   C11       1.0  0.5364786502012747  0.5643708092126899  0.19314251807315236  1.0000
  C   C12       1.0  0.9825549133853996  0.4501447956046222  0.46918823555432  1.0000
  C   C13       1.0  0.5024935443466703  0.49408621760111526  0.23591867351384374  1.0000
  C   C14       1.0  0.47167731674424107  0.423885724459943  0.1862560562132174  1.0000
  C   C15       1.0  0.47425115774198884  0.42438178258232284  0.09557715587197181  1.0000
  C   C16       1.0  0.499037572818942  0.4943382564456158  0.3334186976357785  1.0000
  C   C17       1.0  0.5083103532845001  0.4945581125824531  0.0519248415954721  1.0000
  C   C18       1.0  0.5891564277144  0.861489807488141  0.529399168899417  1.0000
  C   C19       1.0  0.5845593405342411  0.7634929322786449  0.5301560341478293  1.0000
  C   C20       1.0  0.4104578725058872  0.8251854863669265  0.4721866550774011  1.0000
  C   C21       1.0  0.40938911361373453  0.9250272042297636  0.4687172943595784  1.0000
  C   C22       1.0  0.4996564649938832  0.9451459077171763  0.4990464323709816  1.0000
  C   C23       1.0  0.8696836060043721  0.47566337055722857  0.45860638400165504  1.0000
  C   C24       1.0  0.4472477449465656  0.12168694738092968  0.4338791006393664  1.0000
  C   C25       1.0  0.44987582765391915  0.2204186914443369  0.43717578916236033  1.0000
  C   C26       1.0  0.5496011283918918  0.18522101978799546  0.5670728133007472  1.0000
  C   C27       1.0  0.5512946975007793  0.08500353926150687  0.5679765890089072  1.0000
  C   C28       1.0  0.29025412326462424  0.5692656476573391  0.4861210325319406  1.0000
  C   C29       1.0  0.49962696838458237  0.05108438913727301  0.5000072595402045  1.0000
  C   C30       1.0  0.004497294763936547  0.6997344249571072  0.3972433059858247  1.0000
  C   C31       1.0  0.17572996850731218  0.5903368345718931  0.45954406765635986  1.0000
  C   C32       1.0  0.8916299827298885  0.3055656835312418  0.5142940309686284  1.0000
  C   C33       1.0  0.003861894227412692  0.2786751702037833  0.5186710239391132  1.0000
  C   C34       1.0  0.027295665935049864  0.5280200510663206  0.4511288698418596  1.0000
  C   C35       1.0  0.04844091787366272  0.3507549836703987  0.4986649353712452  1.0000
  C   C36       1.0  0.1755791970802179  0.1508216441456725  0.552521810367061  1.0000
  C   C37       1.0  0.9601941606782636  0.6238488992450116  0.4132001562314046  1.0000
  C   C38       1.0  0.8499893211845374  0.640804544785844  0.3935985521612367  1.0000
  C   C39       1.0  0.8060295558819914  0.5708567893057435  0.4170575771415771  1.0000
  C   C40       1.0  0.13433172997564916  0.5141421715148056  0.47323651796428834  1.0000
  C   C41       1.0  0.10989556594164908  0.684080623920053  0.4202134850384455  1.0000
  N   N1        1.0  0.496230233898615  0.7461571790094437  0.502921351649519  1.0000
  N   N2        1.0  0.5004566464731752  0.2513706965988903  0.5025119988661473  1.0000
  O   O1        1.0  0.5300912940602204  0.4086237168292399  0.6345180220317489  1.0000
  O   O2        1.0  0.47413228085635245  0.5834478614571876  0.6361147951708334  1.0000
  O   O3        1.0  0.6670038620049397  0.3630506940259508  0.4816612474210659  1.0000
  O   O4        1.0  0.6547986791532167  0.5238376849865178  0.5227636020603584  1.0000
  O   O5        1.0  0.4779371162746529  0.4221339804137826  0.369132477156036  1.0000
  O   O6        1.0  0.5175941632574351  0.5668551738835035  0.3740487566695877  1.0000
  O   O7        1.0  0.3440192029386536  0.4796145691087617  0.5159433579307307  1.0000
  O   O8        1.0  0.3272979419360312  0.6407285415482632  0.47661543531937417  1.0000
  O   O9        1.0  0.06201376485618942  0.17983526329934563  0.5453000044024636  1.0000
