data_image0
_chemical_formula_structural       Al2H16C26N2O18
_chemical_formula_sum              "Al2 H16 C26 N2 O18"
_cell_length_a       6.656488420592071
_cell_length_b       10.942234303752441
_cell_length_c       16.98953435073298
_cell_angle_alpha    85.04252769409644
_cell_angle_beta     81.9225079637585
_cell_angle_gamma    74.05541789762646

_space_group_name_H-M_alt    "P 1"
_space_group_IT_number       1

loop_
  _space_group_symop_operation_xyz
  'x, y, z'

loop_
  _atom_site_type_symbol
  _atom_site_label
  _atom_site_symmetry_multiplicity
  _atom_site_fract_x
  _atom_site_fract_y
  _atom_site_fract_z
  _atom_site_occupancy
  Al  Al1       1.0  0.5068970240352468  0.5058792735993336  0.4804250401060983  1.0000
  Al  Al2       1.0  0.0040483911056198064  0.5065180537790683  0.48512890275083714  1.0000
  H   H1        1.0  0.2335325806060595  0.5982740139928922  0.39156996685858997  1.0000
  H   H2        1.0  0.7747278545873185  0.3747145281656117  0.5535901416370663  1.0000
  H   H3        1.0  0.8834897786473306  0.4754233851035607  0.725906985595344  1.0000
  H   H4        1.0  0.8369071070864604  0.4662736417857757  0.8745123581160144  1.0000
  H   H5        1.0  0.44941095383781965  0.5293580761248221  0.8713334683091103  1.0000
  H   H6        1.0  0.6276474328926511  0.45414792650961977  0.08824659007132848  1.0000
  H   H7        1.0  0.2343425711495115  0.5188001626351593  0.0969979041950637  1.0000
  H   H8        1.0  0.15947218760648244  0.5246611278553032  0.2444493357297404  1.0000
  H   H9        1.0  0.5217818306606221  0.5462396895777175  0.6592562856189941  1.0000
  H   H10       1.0  0.5211206636236979  0.45174029492766  0.29942228056234643  1.0000
  H   H11       1.0  0.0823777794204759  0.2123178090618793  0.45912267255477707  1.0000
  H   H12       1.0  0.31564926485727796  0.7838183683602793  0.4595815552163883  1.0000
  H   H13       1.0  0.6164875161129544  0.2861089969167736  0.6819448599123061  1.0000
  H   H14       1.0  0.9312405506133744  0.0881530109168196  0.7626064227129914  1.0000
  H   H15       1.0  0.002058127546313219  0.7918616744895314  0.7276340586153792  1.0000
  H   H16       1.0  0.8634808117137495  0.7031852676688003  0.5949251436121726  1.0000
  C   C1        1.0  0.6437307560863701  0.7372937902317103  0.500708620055974  1.0000
  C   C2        1.0  0.8123690898962722  0.4991249389222858  0.33778613787158207  1.0000
  C   C3        1.0  0.35396062333229134  0.2756768955030324  0.49655818287011744  1.0000
  C   C4        1.0  0.21168585232006626  0.5129784924973391  0.6270084488958005  1.0000
  C   C5        1.0  0.1912059988111849  0.5073503045127338  0.7143104304491885  1.0000
  C   C6        1.0  0.006900873020064969  0.48592272968291167  0.7582830839231604  1.0000
  C   C7        1.0  0.9796153787242473  0.48136741668135136  0.8402958232779907  1.0000
  C   C8        1.0  0.1406441001483429  0.4978212889429301  0.8809384542235958  1.0000
  C   C9        1.0  0.3265821315991815  0.5168974552598298  0.8390458488646855  1.0000
  C   C10       1.0  0.35368315373648335  0.5220999486885702  0.7556024946612112  1.0000
  C   C11       1.0  0.7430670325800574  0.4696223474787473  0.12317464395644612  1.0000
  C   C12       1.0  0.933171010180885  0.4874014021776532  0.08454937743790229  1.0000
  C   C13       1.0  0.08642784951863552  0.5066061835927371  0.1282644728950686  1.0000
  C   C14       1.0  0.04323850959600864  0.5100649956988547  0.20994596014258346  1.0000
  C   C15       1.0  0.8524114744449135  0.4929214538101832  0.2508145912416068  1.0000
  C   C16       1.0  0.7017769839945133  0.4702278924189329  0.20627576579538237  1.0000
  C   C17       1.0  0.5480432458725772  0.86842144515154  0.5239504066004271  1.0000
  C   C18       1.0  0.640244814843811  0.9382161695334759  0.5719387326597101  1.0000
  C   C19       1.0  0.3579506577105461  0.9321100189639823  0.4935453204440349  1.0000
  C   C20       1.0  0.779199060387853  0.8758227563774168  0.6275525508153662  1.0000
  C   C21       1.0  0.8550351091586992  0.9439770058559985  0.6767761418660782  1.0000
  C   C22       1.0  0.40237256533551147  0.13949467662467896  0.5216288726696376  1.0000
  C   C23       1.0  0.28466115849458606  0.06852064221279622  0.49276779114473607  1.0000
  C   C24       1.0  0.5685383298285983  0.07609851707322687  0.5697885122437966  1.0000
  C   C25       1.0  0.6448050827468492  0.1412306244009613  0.6227350676453014  1.0000
  C   C26       1.0  0.7891693504293825  0.07596833919524928  0.6738687366887888  1.0000
  N   N1        1.0  0.1273375694240571  0.49788436792346136  0.9649661711427054  1.0000
  N   N2        1.0  0.9534656135664576  0.48515746090531303  0.0007321094831595886  1.0000
  O   O1        1.0  0.5273795236579416  0.6786612829433449  0.4717991209111858  1.0000
  O   O2        1.0  0.9511652294295557  0.5188770107995423  0.37600223752094303  1.0000
  O   O3        1.0  0.16407779216100954  0.33036634632717465  0.47895308297918154  1.0000
  O   O4        1.0  0.38015431234727953  0.536340035175364  0.588540102542332  1.0000
  O   O5        1.0  0.49689771867807747  0.3336443665612378  0.4885038222831071  1.0000
  O   O6        1.0  0.0651458762850297  0.4949972018181795  0.5924956191713873  1.0000
  O   O7        1.0  0.8403753962220074  0.6821626174742476  0.5046493407357105  1.0000
  O   O8        1.0  0.6324059721963028  0.48491345812134756  0.3720029889937776  1.0000
  O   O9        1.0  0.23995724716335332  0.5658387158052776  0.44638364590787916  1.0000
  O   O10       1.0  0.7657217452258747  0.4512556270203376  0.5189386921824592  1.0000
  O   O11       1.0  0.536272759225831  0.5402325064966362  0.7174426093410204  1.0000
  O   O12       1.0  0.5184448274349406  0.4488515752842162  0.24085683788513987  1.0000
  O   O13       1.0  0.11235471623594857  0.11780853874100218  0.4561307560685107  1.0000
  O   O14       1.0  0.24172091661070982  0.8772152578559868  0.45770764661379093  1.0000
  O   O15       1.0  0.5701409510285415  0.27076695613875756  0.6322247488687294  1.0000
  O   O16       1.0  0.8490338224858006  0.14675012637196258  0.7249750548193175  1.0000
  O   O17       1.0  0.9840403805556402  0.8833115523891448  0.7321559126213228  1.0000
  O   O18       1.0  0.8383632074204781  0.7475303898415574  0.6454820907569709  1.0000
