data_image0
_chemical_formula_structural       Zn8H80C116N32
_chemical_formula_sum              "Zn8 H80 C116 N32"
_cell_length_a       14.700037415647103
_cell_length_b       15.106616995640172
_cell_length_c       24.599566018316285
_cell_angle_alpha    90.37644214928893
_cell_angle_beta     89.88170337582497
_cell_angle_gamma    103.9351639028622

_space_group_name_H-M_alt    "P 1"
_space_group_IT_number       1

loop_
  _space_group_symop_operation_xyz
  'x, y, z'

loop_
  _atom_site_type_symbol
  _atom_site_label
  _atom_site_symmetry_multiplicity
  _atom_site_fract_x
  _atom_site_fract_y
  _atom_site_fract_z
  _atom_site_occupancy
  Zn  Zn1       1.0  0.5709910378193755  0.41602750846043074  0.4247278790949378  1.0000
  Zn  Zn2       1.0  0.41598296055677514  0.5342787586017081  0.43646613580246896  1.0000
  Zn  Zn3       1.0  0.08001864309410683  0.949687118451152  0.9379533654750812  1.0000
  Zn  Zn4       1.0  0.9334737303150079  0.07528173049110619  0.9208355189270417  1.0000
  Zn  Zn5       1.0  0.4227670853908804  0.5356269941524802  0.5693363258572715  1.0000
  Zn  Zn6       1.0  0.5633288429157518  0.39844987013523797  0.5600684722769173  1.0000
  Zn  Zn7       1.0  0.9279524037294423  0.08840070187599024  0.056397677627550984  1.0000
  Zn  Zn8       1.0  0.0685618679449504  0.9524922244290509  0.07115287135891889  1.0000
  H   H1        1.0  0.6882063112410463  0.5268293350386201  0.3143557846804866  1.0000
  H   H2        1.0  0.1431464652978178  0.2879996291503204  0.6716765533868027  1.0000
  H   H3        1.0  0.34804567277215165  0.18779508289539137  0.17203935201436585  1.0000
  H   H4        1.0  0.7146898393944594  0.9259402035921694  0.2550997998003409  1.0000
  H   H5        1.0  0.4097977731776298  0.23356267890419963  0.2630751818577365  1.0000
  H   H6        1.0  0.6074214005254817  0.8050758076932992  0.30756650700726584  1.0000
  H   H7        1.0  0.8598286740789973  0.6799163516132082  0.8217554103342619  1.0000
  H   H8        1.0  0.0851056221890047  0.24112188285648978  0.7633515297964802  1.0000
  H   H9        1.0  0.16472048345169552  0.33228835247457766  0.29967583936704756  1.0000
  H   H10       1.0  0.698402759231925  0.5996109249372664  0.214758559889546  1.0000
  H   H11       1.0  0.8143952575057013  0.8807601953572188  0.7084409997072707  1.0000
  H   H12       1.0  0.2455956241643236  0.4088307487110471  0.37755602516725156  1.0000
  H   H13       1.0  0.3381486443061377  0.15531624550304463  0.7970893600734639  1.0000
  H   H14       1.0  0.6983012333844982  0.7604114625855092  0.6591409985283078  1.0000
  H   H15       1.0  0.39624671575489856  0.20258475612983765  0.7055913666715552  1.0000
  H   H16       1.0  0.10254038680130148  0.285487567394874  0.20889726591599356  1.0000
  H   H17       1.0  0.8047621489876632  0.7208546490126508  0.16156150393233296  1.0000
  H   H18       1.0  0.6756890748413652  0.07023277995180167  0.5675114505407065  1.0000
  H   H19       1.0  0.6547162570137885  0.9039803204236349  0.5726205151769432  1.0000
  H   H20       1.0  0.8386069567304943  0.5822056986855415  0.07306027506952968  1.0000
  H   H21       1.0  0.8202967155841846  0.4162879050280139  0.06617764409730847  1.0000
  H   H22       1.0  0.5520788756052966  0.8769603091549171  0.40796334993970607  1.0000
  H   H23       1.0  0.24814770623848398  0.06384525272216728  0.8711806626158277  1.0000
  H   H24       1.0  0.5730058969083133  0.04292502226093828  0.4029114067903733  1.0000
  H   H25       1.0  0.9221192579991566  0.4463334584331875  0.901298256099487  1.0000
  H   H26       1.0  0.9410612319174021  0.6119107029329457  0.9083685710977104  1.0000
  H   H27       1.0  0.5244099441796024  0.6596669455371398  0.6699296934091378  1.0000
  H   H28       1.0  0.43076204873018037  0.2192077777648791  0.6073762290103414  1.0000
  H   H29       1.0  0.059588415265018596  0.26332097905122953  0.11333639207013137  1.0000
  H   H30       1.0  0.9632691864153955  0.8339417661733322  0.17096736492301545  1.0000
  H   H31       1.0  0.564219625463238  0.7208145253026572  0.4104577570768128  1.0000
  H   H32       1.0  0.6250207565727238  0.21389189055911123  0.39843035812926075  1.0000
  H   H33       1.0  0.8824872311425125  0.2786381778190119  0.8950840312762903  1.0000
  H   H34       1.0  0.8229116649764235  0.9708393867027354  0.8078542125369947  1.0000
  H   H35       1.0  0.9274563942907434  0.7656267180262263  0.9122043922280623  1.0000
  H   H36       1.0  0.7383666936165342  0.5661238306185795  0.5900583039336594  1.0000
  H   H37       1.0  0.20860073767435952  0.5837365910092345  0.5939021653391944  1.0000
  H   H38       1.0  0.28481074088434605  0.9051105417863212  0.09784222950013087  1.0000
  H   H39       1.0  0.7520362319346816  0.9145355881391454  0.07894184744755957  1.0000
  H   H40       1.0  0.5476547282103753  0.7476678395885871  0.5853796158523108  1.0000
  H   H41       1.0  0.6142100830526258  0.20264748750658865  0.5739774345331411  1.0000
  H   H42       1.0  0.8745010530594328  0.28229630746285034  0.07078177673245986  1.0000
  H   H43       1.0  0.9459046588819788  0.7403317709871118  0.08675157901942747  1.0000
  H   H44       1.0  0.755197444656673  0.5816679116746072  0.4144083970016722  1.0000
  H   H45       1.0  0.018790109214535302  0.5503435140369889  0.5178938365978351  1.0000
  H   H46       1.0  0.21290317343258638  0.5823094319469034  0.4183597481871357  1.0000
  H   H47       1.0  0.2772211373013178  0.8933794998964616  0.9222433157966773  1.0000
  H   H48       1.0  0.7497888255854972  0.9152696474171265  0.9028273579598076  1.0000
  H   H49       1.0  0.6893892255952992  0.4585002993242071  0.6719915518595484  1.0000
  H   H50       1.0  0.24916855375243324  0.4060334313086714  0.6135299808085221  1.0000
  H   H51       1.0  0.2454521136493  0.0803721789346028  0.10996352867079649  1.0000
  H   H52       1.0  0.7851435218206078  0.02282708069345319  0.16056403179333498  1.0000
  H   H53       1.0  0.46232438556261707  0.6639934815671465  0.3261213225689444  1.0000
  H   H54       1.0  0.4571611406527296  0.25645233830766045  0.35371733548076617  1.0000
  H   H55       1.0  0.0547767596234578  0.23805081834889558  0.8586950077269716  1.0000
  H   H56       1.0  0.9150151213233498  0.6293081164019299  0.5515124315079233  1.0000
  H   H57       1.0  0.024373813510322903  0.8081752736704645  0.8321331254095764  1.0000
  H   H58       1.0  0.14305988886704307  0.6935533792215055  0.3793863989620475  1.0000
  H   H59       1.0  0.27416422702744114  0.8192887885407601  0.3492109505789926  1.0000
  H   H60       1.0  0.3340038729074238  0.9536895499660788  0.40976986974450097  1.0000
  H   H61       1.0  0.25880036218389785  0.9622535808503372  0.49962190391782696  1.0000
  H   H62       1.0  0.12725241207724744  0.8359256964835641  0.5298967702058518  1.0000
  H   H63       1.0  0.8605610090693219  0.8076727790254096  0.45517477041644117  1.0000
  H   H64       1.0  0.8211268120409372  0.8665662776967978  0.3658522981643343  1.0000
  H   H65       1.0  0.8630782243153376  0.7985982271370418  0.2801646635252481  1.0000
  H   H66       1.0  0.9406685023845115  0.6696116469887771  0.2828663368823995  1.0000
  H   H67       1.0  0.5844806950591065  0.8325981959249732  0.038114989795360495  1.0000
  H   H68       1.0  0.9808443821974606  0.6117017786144033  0.372240449100019  1.0000
  H   H69       1.0  0.5976411854692855  0.713002405133288  0.8877892888719213  1.0000
  H   H70       1.0  0.6354829978957852  0.734665831197951  0.7893322123658276  1.0000
  H   H71       1.0  0.6295472434028754  0.8798346068687692  0.7443159929053065  1.0000
  H   H72       1.0  0.5858356146938846  0.004235410140473991  0.7979602774044635  1.0000
  H   H73       1.0  0.5459963666290335  0.9810798870418085  0.8962143958647385  1.0000
  H   H74       1.0  0.40591724340040963  0.8056407385800101  0.8557122897795748  1.0000
  H   H75       1.0  0.2705661881584333  0.7031738803357612  0.8110294533101693  1.0000
  H   H76       1.0  0.15140392768631017  0.593964722094718  0.8657185394908137  1.0000
  H   H77       1.0  0.1725845019621985  0.5859679770281189  0.965912008089553  1.0000
  H   H78       1.0  0.47066296259597357  0.9224783917924669  0.02894151588396449  1.0000
  H   H79       1.0  0.30952998508291785  0.6886166614176121  0.010812971020847299  1.0000
  H   H80       1.0  0.7437100178383034  0.56012470870062  0.7728296874060516  1.0000
  C   C1        1.0  0.6246470370146538  0.5487890564013184  0.32343635013157257  1.0000
  C   C2        1.0  0.6233619009716022  0.16654898624926767  0.485407295894319  1.0000
  C   C3        1.0  0.8778027030453189  0.7777644237844825  0.4172061147597716  1.0000
  C   C4        1.0  0.856034145017844  0.810559799418968  0.36729579298683024  1.0000
  C   C5        1.0  0.8795768167206078  0.7723867127210796  0.31901174545689054  1.0000
  C   C6        1.0  0.9235389354425294  0.7002105180531117  0.320679283257597  1.0000
  C   C7        1.0  0.9461616890157033  0.6678747500586866  0.3705703722757149  1.0000
  C   C8        1.0  0.5693715099859844  0.8454833107521081  0.8982001541423156  1.0000
  C   C9        1.0  0.595175289341249  0.776642605016022  0.867841624211877  1.0000
  C   C10       1.0  0.6161694742324003  0.7888752725848462  0.8126575938428855  1.0000
  C   C11       1.0  0.6127312254526699  0.8705634846697022  0.7874119555423674  1.0000
  C   C12       1.0  0.5882385051119529  0.9401840192373997  0.8175017103996179  1.0000
  C   C13       1.0  0.8740574672215969  0.3219281064281247  0.982649146195335  1.0000
  C   C14       1.0  0.5660537842567662  0.9274172539929494  0.8725419853127645  1.0000
  C   C15       1.0  0.36794039584446375  0.7548218028896585  0.9368764996397301  1.0000
  C   C16       1.0  0.35626421910852457  0.756863686506371  0.8802303960314571  1.0000
  C   C17       1.0  0.27894988906965074  0.6993119080070545  0.8549531380245765  1.0000
  C   C18       1.0  0.21223294413962177  0.6381206818033008  0.885485968807657  1.0000
  C   C19       1.0  0.22411767949121494  0.6337093802923306  0.941662991268046  1.0000
  C   C20       1.0  0.30121673628291745  0.6911464357774477  0.9668495269425602  1.0000
  C   C21       1.0  0.9197095634062719  0.7097964866988846  0.9973635504644133  1.0000
  C   C22       1.0  0.7885472401675384  0.5994318805697886  0.5042605228388622  1.0000
  C   C23       1.0  0.17058911274669702  0.5905830101903291  0.505666557117891  1.0000
  C   C24       1.0  0.32125008578860553  0.8913056599770427  0.009595823286332496  1.0000
  C   C25       1.0  0.708303560694972  0.8895328364924849  0.9912716481951872  1.0000
  C   C26       1.0  0.05216198631171659  0.6770558375519399  0.4787796290514449  1.0000
  C   C27       1.0  0.9518817505300277  0.6759430974188164  0.4724167493394658  1.0000
  C   C28       1.0  0.5432865549075457  0.8324895716970743  0.9565687420473377  1.0000
  C   C29       1.0  0.3049489425357947  0.377754649014065  0.3793219330886684  1.0000
  C   C30       1.0  0.4420570579949016  0.8209029204078534  0.9680662543213783  1.0000
  C   C31       1.0  0.07587882402390989  0.6048715448904362  0.5024920484144956  1.0000
  C   C32       1.0  0.8877972724852086  0.6400984183959011  0.5113479402715341  1.0000
  C   C33       1.0  0.6092648009733709  0.8456593865865755  0.9962755373888397  1.0000
  C   C34       1.0  0.41563785557507066  0.8773078182375826  0.005103977253668299  1.0000
  C   C35       1.0  0.7602859517240789  0.6301431666591526  0.7580637167899268  1.0000
  C   C36       1.0  0.18685522453425557  0.2596735688770693  0.6992011012545445  1.0000
  C   C37       1.0  0.30682480356364294  0.2189387819430095  0.19996525700240395  1.0000
  C   C38       1.0  0.7097865719241908  0.8543611543208841  0.24534513629858873  1.0000
  C   C39       1.0  0.3416068498700043  0.24448269560407712  0.25178581768536645  1.0000
  C   C40       1.0  0.19357777753005928  0.1006783787559442  0.8761247630484091  1.0000
  C   C41       1.0  0.6494480194922402  0.7862777417253923  0.27478623488577364  1.0000
  C   C42       1.0  0.8258863265585178  0.697544454229778  0.7853441792218872  1.0000
  C   C43       1.0  0.1543455520731172  0.2337316617801335  0.751278169377471  1.0000
  C   C44       1.0  0.29179889652088786  0.2853144803466988  0.2895148962037835  1.0000
  C   C45       1.0  0.646951231785252  0.6935694237155445  0.26592261160539715  1.0000
  C   C46       1.0  0.8443292387893776  0.78932792421525  0.7691068055321534  1.0000
  C   C47       1.0  0.20773740775624816  0.1964946784299286  0.7883302835432388  1.0000
  C   C48       1.0  0.20591921611480044  0.30084057798722347  0.27194888135110057  1.0000
  C   C49       1.0  0.7023589429951612  0.6712432567606683  0.22381506963931488  1.0000
  C   C50       1.0  0.7984881994918568  0.8104965298615242  0.7227063646219276  1.0000
  C   C51       1.0  0.8814347690942127  0.9428861854106713  0.8196799835394015  1.0000
  C   C52       1.0  0.29438035583371647  0.18390971404559764  0.7697990506814347  1.0000
  C   C53       1.0  0.7330514547993303  0.7433537115022801  0.6954016514286321  1.0000
  C   C54       1.0  0.3269673419660251  0.20985271954526044  0.7177309586245638  1.0000
  C   C55       1.0  0.17096389113478241  0.27515417626516137  0.22018142380947126  1.0000
  C   C56       1.0  0.7621833176529618  0.7390791509001459  0.19420422154472305  1.0000
  C   C57       1.0  0.554232494193279  0.6011373201361465  0.6638323350962948  1.0000
  C   C58       1.0  0.39523841768545515  0.27396405422659603  0.6024142941053795  1.0000
  C   C59       1.0  0.09600653174684479  0.2097509886231137  0.10596062187342876  1.0000
  C   C60       1.0  0.9305289628754281  0.8895282660026568  0.16216494713452073  1.0000
  C   C61       1.0  0.7107131555840738  0.6524355588353004  0.7134934343022862  1.0000
  C   C62       1.0  0.6374552505933265  0.585667880645765  0.6851724261259091  1.0000
  C   C63       1.0  0.27496410713288094  0.2499513547596095  0.6813636419089092  1.0000
  C   C64       1.0  0.2198029413141285  0.23242256141138984  0.18295275582127593  1.0000
  C   C65       1.0  0.7699158908827498  0.8319839254593758  0.20588436736982624  1.0000
  C   C66       1.0  0.6479559272212895  0.028021888158541106  0.5323367989061436  1.0000
  C   C67       1.0  0.636291053578752  0.9340002791768285  0.5351980741209202  1.0000
  C   C68       1.0  0.857605359506742  0.5528109555428741  0.035277387354639686  1.0000
  C   C69       1.0  0.8473511678196033  0.4590115842960146  0.03136451349487859  1.0000
  C   C70       1.0  0.5998233548966782  0.8768536451420914  0.49105176504488657  1.0000
  C   C71       1.0  0.6236711177528563  0.0697871031398307  0.4853268636193703  1.0000
  C   C72       1.0  0.8723450343583535  0.4182422720325363  0.9837637086173668  1.0000
  C   C73       1.0  0.31720188514781006  0.29012561925402736  0.6304145467944479  1.0000
  C   C74       1.0  0.8934337698538428  0.6105770186257828  0.9916568261886025  1.0000
  C   C75       1.0  0.5812065657217715  0.9192128903332631  0.4428638658157381  1.0000
  C   C76       1.0  0.5927552960933015  0.013194838812772527  0.4400707043602166  1.0000
  C   C77       1.0  0.9022157796053064  0.4753303375645359  0.9389643887229222  1.0000
  C   C78       1.0  0.912505388961918  0.5690488197502291  0.9428761837925631  1.0000
  C   C79       1.0  0.5527934927123042  0.7124605657138331  0.45388045677393746  1.0000
  C   C80       1.0  0.6207699015182724  0.22592875617957725  0.4418549527511642  1.0000
  C   C81       1.0  0.8821059112029558  0.26474812764502786  0.9383763255484464  1.0000
  C   C82       1.0  0.9394848971749566  0.7744567595384807  0.9555553290442089  1.0000
  C   C83       1.0  0.7275868727453629  0.5598356358135491  0.546450744886698  1.0000
  C   C84       1.0  0.17568839853085189  0.19356893679849918  0.13197141641469295  1.0000
  C   C85       1.0  0.2248311288248956  0.5799831240396928  0.5509687793043908  1.0000
  C   C86       1.0  0.26810253118017613  0.9058694160728819  0.05485595747956748  1.0000
  C   C87       1.0  0.7660950890119337  0.9248864708290228  0.03585711241365169  1.0000
  C   C88       1.0  0.5460365667597813  0.725554132340463  0.5432298738860623  1.0000
  C   C89       1.0  0.6169825777244498  0.22068410246730247  0.531229214811901  1.0000
  C   C90       1.0  0.8766546301768444  0.2661576800190275  0.027779246592316995  1.0000
  C   C91       1.0  0.9472191660542109  0.7620720915844642  0.04472983225192449  1.0000
  C   C92       1.0  0.7365233349050015  0.567958860158967  0.45671394619481  1.0000
  C   C93       1.0  0.22759900417381826  0.5801693638887144  0.46147302381474725  1.0000
  C   C94       1.0  0.26342981278454397  0.8991688382203266  0.9653293584201915  1.0000
  C   C95       1.0  0.8422743283562965  0.9003967805359565  0.17855180373433646  1.0000
  C   C96       1.0  0.7639345988848519  0.9253601761926619  0.9458968457752659  1.0000
  C   C97       1.0  0.6373253463279626  0.4979069419180462  0.6660960519753373  1.0000
  C   C98       1.0  0.30203880265062827  0.3684600847120408  0.6049911493508728  1.0000
  C   C99       1.0  0.19147513418815984  0.1173988064671363  0.10380746940094096  1.0000
  C   C100      1.0  0.8404498157296911  0.986468997665277  0.15817768901220566  1.0000
  C   C101      1.0  0.510529120932567  0.6199468160586221  0.32997452817529893  1.0000
  C   C102      1.0  0.41310494274338794  0.3008424049316575  0.3669391855638152  1.0000
  C   C103      1.0  0.0942449047464677  0.18834839581827373  0.8692572764204269  1.0000
  C   C104      1.0  0.9826929986477708  0.858625527995052  0.8328686248196602  1.0000
  C   C105      1.0  0.5949319602525308  0.6235336849220803  0.30241553024222156  1.0000
  C   C106      1.0  0.572822167674069  0.7775426350678104  0.4959719152037677  1.0000
  C   C107      1.0  0.33140703483780243  0.3160498444546747  0.3429625275434771  1.0000
  C   C108      1.0  0.17053251767792688  0.166789105461838  0.8422414268429957  1.0000
  C   C109      1.0  0.9022853920421668  0.8608259619231545  0.8028856639346171  1.0000
  C   C110      1.0  0.12644588238175206  0.7549656247916802  0.45719083405780475  1.0000
  C   C111      1.0  0.16835913200726077  0.7521068973977806  0.40610495242292177  1.0000
  C   C112      1.0  0.24217093589386005  0.8231411287531643  0.388971625092381  1.0000
  C   C113      1.0  0.2755189608872968  0.898641971536506  0.42266563005967567  1.0000
  C   C114      1.0  0.23329016159682675  0.9032929000529394  0.473160002304972  1.0000
  C   C115      1.0  0.159237079511044  0.8322830028533728  0.49012665287113305  1.0000
  C   C116      1.0  0.9241076508630996  0.7067633443660242  0.4193403835785998  1.0000
  N   N1        1.0  0.5634200151766109  0.5052780838007536  0.3609425425293934  1.0000
  N   N2        1.0  0.613760928216635  0.30830255709125237  0.46041859119430467  1.0000
  N   N3        1.0  0.8885974602447463  0.1820919508271999  0.9559179795719427  1.0000
  N   N4        1.0  0.9775355078451113  0.857850974823947  0.9765036654738848  1.0000
  N   N5        1.0  0.6476758115589191  0.507622029445244  0.5256491535088087  1.0000
  N   N6        1.0  0.30812905987520633  0.5663239488865628  0.53472531790387  1.0000
  N   N7        1.0  0.1849318657506345  0.9196074170913917  0.03861042815294269  1.0000
  N   N8        1.0  0.8472084069533564  0.9795763031572802  0.018367693749290495  1.0000
  N   N9        1.0  0.5112791282237907  0.6373328039031207  0.5296122117103433  1.0000
  N   N10       1.0  0.6111314919377762  0.3045902220452916  0.5162246873107604  1.0000
  N   N11       1.0  0.8853125660944982  0.18329590150968036  0.011743458882918398  1.0000
  N   N12       1.0  0.3679286806712199  0.39981740936814697  0.4202371693099208  1.0000
  N   N13       1.0  0.9820046879891038  0.8500697865223471  0.031344531914889694  1.0000
  N   N14       1.0  0.6537222356212665  0.5123800916137001  0.4704499918108524  1.0000
  N   N15       1.0  0.30930826541508344  0.5656570073420825  0.47901698745317833  1.0000
  N   N16       1.0  0.18296205727988027  0.9163901243524111  0.9828061144332947  1.0000
  N   N17       1.0  0.8455786641058508  0.9792525062136193  0.9631113057921321  1.0000
  N   N18       1.0  0.5617669176886508  0.46501758195444154  0.6343373189042153  1.0000
  N   N19       1.0  0.368321271379088  0.39854801670662715  0.5667807765317148  1.0000
  N   N20       1.0  0.12399989262056717  0.0883126316975407  0.06589199224898577  1.0000
  N   N21       1.0  0.9196395616159377  0.022213164753317395  0.13012024381018955  1.0000
  N   N22       1.0  0.4920508065045013  0.5494306323121378  0.3648023170636775  1.0000
  N   N23       1.0  0.1332984584092927  0.0820389564866275  0.9183964799015241  1.0000
  N   N24       1.0  0.4349658451478433  0.35192255461582533  0.41250586717252685  1.0000
  N   N25       1.0  0.0714315513777137  0.13645306903668336  0.9142157777804127  1.0000
  N   N26       1.0  0.006933342922309301  0.9326126531486808  0.8653455872086011  1.0000
  N   N27       1.0  0.9435716381067181  0.9850673895814169  0.8573475701641369  1.0000
  N   N28       1.0  0.5094208298556067  0.529444069132637  0.6335480514403425  1.0000
  N   N29       1.0  0.42581851475060967  0.3397126914916342  0.5649989324677377  1.0000
  N   N30       1.0  0.06524645030945919  0.1459473650707466  0.06716839972916228  1.0000
  N   N31       1.0  0.9763440542686155  0.9617781385153563  0.13311449022778277  1.0000
  N   N32       1.0  0.5153977135160518  0.6292066449704806  0.47470487849795245  1.0000
