data_image0
_chemical_formula_structural       Zn2H64C50N8O8
_chemical_formula_sum              "Zn2 H64 C50 N8 O8"
_cell_length_a       6.926763827671284
_cell_length_b       10.874823959928317
_cell_length_c       16.179478049738258
_cell_angle_alpha    77.81851629481076
_cell_angle_beta     86.7475951386642
_cell_angle_gamma    87.34802371490059

_space_group_name_H-M_alt    "P 1"
_space_group_IT_number       1

loop_
  _space_group_symop_operation_xyz
  'x, y, z'

loop_
  _atom_site_type_symbol
  _atom_site_label
  _atom_site_symmetry_multiplicity
  _atom_site_fract_x
  _atom_site_fract_y
  _atom_site_fract_z
  _atom_site_occupancy
  Zn  Zn1       1.0  0.31320204872478286  0.09870486344566842  0.2544588706450952  1.0000
  Zn  Zn2       1.0  0.6867947645138982  0.9012956108556621  0.7455399618161563  1.0000
  H   H1        1.0  0.42268360360544216  0.012854573791003097  0.08144385961833221  1.0000
  H   H2        1.0  0.5773191534041898  0.9871411397953408  0.9185567330114922  1.0000
  H   H3        1.0  0.7780051317618656  0.07859057434674101  0.9912608117049472  1.0000
  H   H4        1.0  0.22199614678321208  0.9214060907311464  0.008740301280695983  1.0000
  H   H5        1.0  0.5941221796474421  0.2946546247145747  0.2547172281369825  1.0000
  H   H6        1.0  0.40587466521740356  0.7053449083544905  0.7452817355667848  1.0000
  H   H7        1.0  0.781531210937615  0.36693670259822403  0.18378129533900278  1.0000
  H   H8        1.0  0.2184656336416566  0.6330628282180869  0.8162182867563247  1.0000
  H   H9        1.0  0.8374339257852623  0.23059698526348174  0.2612769129361538  1.0000
  H   H10       1.0  0.16256288716785147  0.7694034867850944  0.7387225379166509  1.0000
  H   H11       1.0  0.058571707076445996  0.17802693324913577  0.023696539937290602  1.0000
  H   H12       1.0  0.9414296344353943  0.8219678471114877  0.9763054539249366  1.0000
  H   H13       1.0  0.07441420299273457  0.2064612098005298  0.1263357086352741  1.0000
  H   H14       1.0  0.9255841186232558  0.7935373582604582  0.8736664450619928  1.0000
  H   H15       1.0  0.2390214317115706  0.39442133297146137  0.10322566423406701  1.0000
  H   H16       1.0  0.7609799103713968  0.6055734518946706  0.8967750928450472  1.0000
  H   H17       1.0  0.2569460806628641  0.6238893345196742  0.04199938684180184  1.0000
  H   H18       1.0  0.7430566769179023  0.3761063835721856  0.9579999690049165  1.0000
  H   H19       1.0  0.7428907420620305  0.0430436392655835  0.3328329867033588  1.0000
  H   H20       1.0  0.25711481403145336  0.9569548797517128  0.6671652906107042  1.0000
  H   H21       1.0  0.7905883854784435  0.8656594570558764  0.4826905710290391  1.0000
  H   H22       1.0  0.20940987374192588  0.1343410002278986  0.5173094650085445  1.0000
  H   H23       1.0  0.06305971517991078  0.9784844011346934  0.4035805838455033  1.0000
  H   H24       1.0  0.9369439179693727  0.021528233109222594  0.5964200867784797  1.0000
  H   H25       1.0  0.09847753720779202  0.8611037084370494  0.4981700990173081  1.0000
  H   H26       1.0  0.9015232663737436  0.13890707061919727  0.5018302821137083  1.0000
  H   H27       1.0  0.0997169261973099  0.817841946572919  0.39818467581791595  1.0000
  H   H28       1.0  0.9002737201739063  0.1821698635526587  0.6018151881264728  1.0000
  H   H29       1.0  0.3019455326294889  0.7574226470720046  0.5720796123108941  1.0000
  H   H30       1.0  0.6980482612844765  0.2425816194352065  0.4279181432022981  1.0000
  H   H31       1.0  0.5499913557743381  0.7548953248540755  0.593978979269977  1.0000
  H   H32       1.0  0.4500040428232521  0.24510422297979054  0.4060193992490113  1.0000
  H   H33       1.0  0.7539275506443416  0.6572153871098507  0.4537758632527726  1.0000
  H   H34       1.0  0.24606627518135574  0.3427879404178498  0.5462214051113817  1.0000
  H   H35       1.0  0.20491932815839675  0.5535616204936601  0.5814471901081506  1.0000
  H   H36       1.0  0.7950759755607136  0.44644075103698105  0.4185507946832985  1.0000
  H   H37       1.0  0.14194887817831867  0.4680962466434552  0.3842206983080771  1.0000
  H   H38       1.0  0.8580493497014527  0.5319051541253259  0.6157785880954307  1.0000
  H   H39       1.0  0.0033915594940979  0.49330774448911535  0.29383820373319486  1.0000
  H   H40       1.0  0.996611102922614  0.5066907950467581  0.7061613767775372  1.0000
  H   H41       1.0  0.44648606599606205  0.47022265838690913  0.2831509491444564  1.0000
  H   H42       1.0  0.5535150866155121  0.5297777761255273  0.7168484020880186  1.0000
  H   H43       1.0  0.2942981455474722  0.5189363654530652  0.19842007974419576  1.0000
  H   H44       1.0  0.7057001455846218  0.4810631528512061  0.8015794691443432  1.0000
  H   H45       1.0  0.36349434344250386  0.6591717306066442  0.33912383105246857  1.0000
  H   H46       1.0  0.6365039160634324  0.34082872892987837  0.6608755865935622  1.0000
  H   H47       1.0  0.18303958103859225  0.7073463835351248  0.2651354054953218  1.0000
  H   H48       1.0  0.8169615718585489  0.29265405323006627  0.7348633273456002  1.0000
  H   H49       1.0  0.4217790024206352  0.7462627215442765  0.14643881041716614  1.0000
  H   H50       1.0  0.5782236916222343  0.2537348767593386  0.8535609013360742  1.0000
  H   H51       1.0  0.4788013290495385  0.826983004762603  0.22417428146825097  1.0000
  H   H52       1.0  0.521204258384536  0.1730145707696806  0.7758247454798806  1.0000
  H   H53       1.0  0.6800278262992305  0.5887730026385043  0.18282651166464356  1.0000
  H   H54       1.0  0.3199748372597426  0.41122554590839394  0.8171705952798689  1.0000
  H   H55       1.0  0.7134380191960972  0.6332713417257522  0.2795636554208799  1.0000
  H   H56       1.0  0.28656480135141743  0.3667224916488365  0.7204365813024226  1.0000
  H   H57       1.0  0.9715479185814997  0.707446707498363  0.1630752590899576  1.0000
  H   H58       1.0  0.0284561895313331  0.2925518127671935  0.836926143388652  1.0000
  H   H59       1.0  0.7949231085012297  0.8063162235914162  0.10587655483377749  1.0000
  H   H60       1.0  0.20508099932603585  0.19368229442139298  0.8941254660363783  1.0000
  H   H61       1.0  0.8789050199207079  0.8168306506439151  0.2885227175777629  1.0000
  H   H62       1.0  0.12109191839478937  0.18316604746460288  0.7114797318113162  1.0000
  H   H63       1.0  0.7387360023195271  0.9249812818037881  0.2197082855117643  1.0000
  H   H64       1.0  0.2612624141749436  0.0750144625604179  0.7802942619130561  1.0000
  C   C1        1.0  0.5365407304176982  0.07230263923175778  0.09155366563357602  1.0000
  C   C2        1.0  0.46346344123302424  0.9276940008220435  0.9084473809385116  1.0000
  C   C3        1.0  0.7090085459491886  0.10263530821911358  0.04798408809286773  1.0000
  C   C4        1.0  0.29099276393648665  0.8973604133737609  0.9520177745268441  1.0000
  C   C5        1.0  0.6797592905534484  0.19724613677283998  0.15806901732800333  1.0000
  C   C6        1.0  0.3202375853664208  0.8027524505584581  0.8419313144013856  1.0000
  C   C7        1.0  0.7260513590151872  0.2762599415442821  0.2180423188647538  1.0000
  C   C8        1.0  0.2739454536523596  0.7237405282515326  0.7819577503796041  1.0000
  C   C9        1.0  0.9902561532466833  0.23036389856247297  0.06934491501945671  1.0000
  C   C10       1.0  0.009742232192763784  0.7696327915395075  0.930656264379742  1.0000
  C   C11       1.0  0.9912634125721594  0.3702312651057654  0.03404368730663524  1.0000
  C   C12       1.0  0.008739345008599698  0.6297644529860874  0.96595566854009  1.0000
  C   C13       1.0  0.1355202485691365  0.4408608778743995  0.05717365817048402  1.0000
  C   C14       1.0  0.8644810624588073  0.5591348527295066  0.9428257308830085  1.0000
  C   C15       1.0  0.1444045099482949  0.5695830106215852  0.023282244080455414  1.0000
  C   C16       1.0  0.8555983114559211  0.430410829511274  0.9767161374681878  1.0000
  C   C17       1.0  0.6365157550067834  0.9867606022513654  0.37389452342491586  1.0000
  C   C18       1.0  0.3634853978903507  0.013239834513825603  0.6261042094160062  1.0000
  C   C19       1.0  0.6646560654698134  0.8982046371578392  0.44644606881126964  1.0000
  C   C20       1.0  0.3353450871417607  0.1017957973545975  0.5535532824211985  1.0000
  C   C21       1.0  0.3515686655869033  0.9115036746593218  0.41952372923751835  1.0000
  C   C22       1.0  0.6484323608055929  0.0885005270349026  0.5804744786333418  1.0000
  C   C23       1.0  0.14155642110312527  0.8908896416996229  0.43083557792758853  1.0000
  C   C24       1.0  0.858441552910662  0.1091192821689546  0.5691645137104614  1.0000
  C   C25       1.0  0.4495315661778746  0.7464582113592968  0.5454889402881449  1.0000
  C   C26       1.0  0.550463705915071  0.2535451014036028  0.45450891326078846  1.0000
  C   C27       1.0  0.4764702559278006  0.6197012264151027  0.5207968740775613  1.0000
  C   C28       1.0  0.5235220914333495  0.3803030526041481  0.47920091464241205  1.0000
  C   C29       1.0  0.6416807073618782  0.5886682155731862  0.4743622876661746  1.0000
  C   C30       1.0  0.35831311903494617  0.4113351164600304  0.5256337439148808  1.0000
  C   C31       1.0  0.3350728096441315  0.529731526576505  0.5460373515343733  1.0000
  C   C32       1.0  0.6649196015404752  0.47027087448374527  0.453959462887525  1.0000
  C   C33       1.0  0.1448372078357352  0.3121775140317951  0.3230951494852974  1.0000
  C   C34       1.0  0.8551668689365073  0.6878219497187814  0.6769055033592438  1.0000
  C   C35       1.0  0.1433155015948628  0.45390252351212007  0.3188094533405917  1.0000
  C   C36       1.0  0.8566827579110734  0.5460979360244025  0.681189964305439  1.0000
  C   C37       1.0  0.3100420424926752  0.5221545329441852  0.2651999941115407  1.0000
  C   C38       1.0  0.6899591414594892  0.47784495808323885  0.734800106755003  1.0000
  C   C39       1.0  0.3253591998630156  0.6583195079014742  0.2739531925338953  1.0000
  C   C40       1.0  0.6746419843747162  0.3416799853787039  0.7260462899410953  1.0000
  C   C41       1.0  0.473596872748871  0.7319798209178072  0.21108429895388536  1.0000
  C   C42       1.0  0.5264072365062304  0.26801870835878117  0.7889146299585122  1.0000
  C   C43       1.0  0.6775131490248754  0.6706350632087421  0.2130659012208227  1.0000
  C   C44       1.0  0.322488098465179  0.3293625476069194  0.7869338437391988  1.0000
  C   C45       1.0  0.8348488922290185  0.760629988482009  0.1703347138938298  1.0000
  C   C46       1.0  0.1651552158838143  0.23936853178354767  0.829666688584773  1.0000
  C   C47       1.0  0.8663046409162404  0.860690589425765  0.22100566490630066  1.0000
  C   C48       1.0  0.13369229711368288  0.13930610642999844  0.7789974028743316  1.0000
  C   C49       1.0  0.04057439366261661  0.9422733277191071  0.19383717413352747  1.0000
  C   C50       1.0  0.9594209701675851  0.057727136566704494  0.8061678754500363  1.0000
  N   N1        1.0  0.5196681436910993  0.1312042986357085  0.15993006206741  1.0000
  N   N2        1.0  0.4803302106933173  0.8687933372040391  0.8400697493061601  1.0000
  N   N3        1.0  0.797394311054404  0.1805232982652853  0.0907271402312659  1.0000
  N   N4        1.0  0.2026055209378583  0.8194733793246557  0.9092740059611514  1.0000
  N   N5        1.0  0.4414180117232219  0.9945098984771903  0.35763044746219924  1.0000
  N   N6        1.0  0.558585908346039  0.005494282698457202  0.642366457211999  1.0000
  N   N7        1.0  0.48475546149262516  0.8513974272774049  0.47408676107546205  1.0000
  N   N8        1.0  0.5152441494020792  0.1486058411910989  0.5259128480278008  1.0000
  O   O1        1.0  0.2528934513541046  0.2745161808260547  0.264427139815851  1.0000
  O   O2        1.0  0.7470974825082165  0.7254871807367635  0.7355677213956471  1.0000
  O   O3        1.0  0.0470555973142055  0.24188906423709966  0.3800836419375031  1.0000
  O   O4        1.0  0.9529644211662357  0.7581093048794255  0.6199211056158732  1.0000
  O   O5        1.0  0.07291368142637107  0.014899609682757399  0.24610003024938013  1.0000
  O   O6        1.0  0.927081745656153  0.9850989721385373  0.7539052818192148  1.0000
  O   O7        1.0  0.13886394813241762  0.9383087200146675  0.12751291643231616  1.0000
  O   O8        1.0  0.861131226797518  0.06169739842295741  0.8724894905214955  1.0000
