data_image0
_chemical_formula_structural       Zn2H36C56O10
_chemical_formula_sum              "Zn2 H36 C56 O10"
_cell_length_a       9.102159218663383
_cell_length_b       12.81833489488142
_cell_length_c       15.008055055376376
_cell_angle_alpha    72.88471501359653
_cell_angle_beta     88.38154110135366
_cell_angle_gamma    69.28612799080338

_space_group_name_H-M_alt    "P 1"
_space_group_IT_number       1

loop_
  _space_group_symop_operation_xyz
  'x, y, z'

loop_
  _atom_site_type_symbol
  _atom_site_label
  _atom_site_symmetry_multiplicity
  _atom_site_fract_x
  _atom_site_fract_y
  _atom_site_fract_z
  _atom_site_occupancy
  Zn  Zn1       1.0  0.15434248954858995  0.9512935657245977  0.03058836009313378  1.0000
  Zn  Zn2       1.0  0.8456581721445247  0.0487041767034029  0.969411393789116  1.0000
  H   H1        1.0  0.38313626022287645  0.7640512344152557  0.05321582752159761  1.0000
  H   H2        1.0  0.6168648468387802  0.23594562651394574  0.9467848019434514  1.0000
  H   H3        1.0  0.44478305513584376  0.8616125774969206  0.9999095348746537  1.0000
  H   H4        1.0  0.5552142370039165  0.138387787709334  9.166031317418916e-05  1.0000
  H   H5        1.0  0.1380370287513842  0.6574750211439309  0.2549024764277092  1.0000
  H   H6        1.0  0.8619588298166788  0.3425262086554142  0.7451005443481479  1.0000
  H   H7        1.0  0.09796154530042865  0.4824120037675358  0.36397592030947823  1.0000
  H   H8        1.0  0.9020327884798647  0.5175926976072276  0.6360296024296589  1.0000
  H   H9        1.0  0.6425319400166032  0.5876062716904331  0.22009534841272682  1.0000
  H   H10       1.0  0.3574711600681369  0.41238881896033064  0.7799069996224404  1.0000
  H   H11       1.0  0.6779919362640215  0.7679081751690835  0.11697443177440886  1.0000
  H   H12       1.0  0.3220027686305613  0.23209048516197586  0.8830246095025275  1.0000
  H   H13       1.0  0.7728691905795487  0.650674384406358  0.3971180734619111  1.0000
  H   H14       1.0  0.227131825266028  0.3493250835051782  0.6028832323783959  1.0000
  H   H15       1.0  0.6508203874138588  0.7766747233836002  0.4956156284995927  1.0000
  H   H16       1.0  0.34917711627480247  0.22332739753938569  0.5043837829271354  1.0000
  H   H17       1.0  0.5415397703432062  0.7007562120799095  0.6428339131998513  1.0000
  H   H18       1.0  0.4584551119256305  0.2992467988569345  0.35716535497890334  1.0000
  H   H19       1.0  0.5528198116802728  0.49346872298036004  0.6942529195455194  1.0000
  H   H20       1.0  0.4471781373769448  0.5065325164438264  0.3057473674640079  1.0000
  H   H21       1.0  0.6090479122018095  0.2732792078417604  0.7225955184515627  1.0000
  H   H22       1.0  0.390948694499784  0.7267202891931817  0.2774059177707429  1.0000
  H   H23       1.0  0.690794453142587  0.06846069477936109  0.7196109458992198  1.0000
  H   H24       1.0  0.3092076649889961  0.9315387658513218  0.280390327345593  1.0000
  H   H25       1.0  0.8226600372202243  0.011410476014830806  0.5849735935403544  1.0000
  H   H26       1.0  0.17734556454755782  0.9885863376510431  0.4150289069742001  1.0000
  H   H27       1.0  0.8768662826953604  0.15745279580180951  0.4520221293402074  1.0000
  H   H28       1.0  0.12313279716855885  0.8425484302948902  0.5479787922176557  1.0000
  H   H29       1.0  0.1374954416343783  0.28243656814188967  0.3173935775974854  1.0000
  H   H30       1.0  0.8625064649482969  0.7175611367720551  0.682609479408427  1.0000
  H   H31       1.0  0.18716555793679393  0.1487672448253576  0.21847839008852787  1.0000
  H   H32       1.0  0.8128387139753458  0.8512366002225209  0.7815177077164321  1.0000
  H   H33       1.0  0.691601017518856  0.21835406821614356  0.18675926280725014  1.0000
  H   H34       1.0  0.30840019325884804  0.7816489595019648  0.8132331383601823  1.0000
  H   H35       1.0  0.6419521597011341  0.3466990684321446  0.29008126557446445  1.0000
  H   H36       1.0  0.3580503524115102  0.6532969339506068  0.7099168711587325  1.0000
  C   C1        1.0  0.9363639531825498  0.8264985472175896  0.11318961544913715  1.0000
  C   C2        1.0  0.0636264058594591  0.17350451702922245  0.8868071145362748  1.0000
  C   C3        1.0  0.911732423385949  0.7221234405960644  0.17837158089367483  1.0000
  C   C4        1.0  0.08826775876396911  0.27787777821978216  0.8216293080686868  1.0000
  C   C5        1.0  0.029884552631415283  0.6414409474758003  0.2479956065066347  1.0000
  C   C6        1.0  0.9701105007616917  0.35856202718121477  0.7520076645351139  1.0000
  C   C7        1.0  0.007691916482656215  0.5435400446901115  0.30837968571764657  1.0000
  C   C8        1.0  0.9923043247585852  0.45646290454612903  0.6916255541601045  1.0000
  C   C9        1.0  0.8686803592644737  0.5229217291749964  0.29844519051118107  1.0000
  C   C10       1.0  0.13131895441907923  0.47707685970618025  0.7015583903905949  1.0000
  C   C11       1.0  0.75096204281558  0.6034027758237032  0.22795942310570183  1.0000
  C   C12       1.0  0.2490393265864199  0.3965914418433343  0.7720445328470973  1.0000
  C   C13       1.0  0.7709266565549415  0.7033335632953452  0.1697008315995916  1.0000
  C   C14       1.0  0.22906890490207849  0.296665928927176  0.8303019715058754  1.0000
  C   C15       1.0  0.8488520392950178  0.41429501563754906  0.358837336359862  1.0000
  C   C16       1.0  0.1511455778804489  0.5857001053708402  0.641165841796635  1.0000
  C   C17       1.0  0.7931899454527455  0.404471005129075  0.4447103779597157  1.0000
  C   C18       1.0  0.2068130634159216  0.5955266925040165  0.5552926464507023  1.0000
  C   C19       1.0  0.7326741971688409  0.49901324293544763  0.4891926587331596  1.0000
  C   C20       1.0  0.26732723552456866  0.5009853495239299  0.5108088555461238  1.0000
  C   C21       1.0  0.7256592834596488  0.6148646713762177  0.46132939808040874  1.0000
  C   C22       1.0  0.2743429258880071  0.3851321822721303  0.538671198789146  1.0000
  C   C23       1.0  0.6569490946483256  0.6861607116470055  0.5175242314896664  1.0000
  C   C24       1.0  0.34305076186983297  0.3138387756386649  0.482475772658475  1.0000
  C   C25       1.0  0.5949060005313813  0.6430818269796889  0.6005991664068304  1.0000
  C   C26       1.0  0.40509266248471226  0.35692027456916264  0.3994015467120633  1.0000
  C   C27       1.0  0.6008471530019577  0.5273690034266921  0.6292853775262088  1.0000
  C   C28       1.0  0.3991507960552526  0.47263223599749454  0.3707149094833184  1.0000
  C   C29       1.0  0.6702300019435442  0.45545724284391303  0.5740637506497777  1.0000
  C   C30       1.0  0.3297694662474909  0.5445431138472687  0.4259367122032174  1.0000
  C   C31       1.0  0.6970850105206665  0.3319464367050032  0.5883010409676146  1.0000
  C   C32       1.0  0.302912310139803  0.6680539224546038  0.4117008213640503  1.0000
  C   C33       1.0  0.6659411841539581  0.2494718327381095  0.6627561147590484  1.0000
  C   C34       1.0  0.33405574817939515  0.7505293958270159  0.33724620627747726  1.0000
  C   C35       1.0  0.7108468866516375  0.13415775165278632  0.6606532733255933  1.0000
  C   C36       1.0  0.289154129193946  0.8658417162587498  0.3393480325147138  1.0000
  C   C37       1.0  0.7860084275817131  0.10214860996472913  0.584932138024854  1.0000
  C   C38       1.0  0.21399008658082874  0.8978491349316968  0.41506901533605856  1.0000
  C   C39       1.0  0.8172344659620878  0.1844514416019436  0.5098434454936368  1.0000
  C   C40       1.0  0.18276574470853998  0.8155497711672698  0.4901581106125618  1.0000
  C   C41       1.0  0.7723627857430986  0.30019540534821954  0.5109580232092057  1.0000
  C   C42       1.0  0.22763847017210287  0.6998058122334074  0.48904216601383144  1.0000
  C   C43       1.0  0.8855702434676829  0.3235545801862402  0.310139762988932  1.0000
  C   C44       1.0  0.11442976190402737  0.6764492637518558  0.6898598009171906  1.0000
  C   C45       1.0  0.039820107072173955  0.267061790366185  0.2899594537812646  1.0000
  C   C46       1.0  0.9601797209252753  0.732937702966119  0.7100398832230469  1.0000
  C   C47       1.0  0.06789052135468408  0.1929433987581888  0.2345212078824517  1.0000
  C   C48       1.0  0.9321081820860474  0.8070604947872296  0.7654737186123272  1.0000
  C   C49       1.0  0.9424530751774186  0.17637009686901448  0.19595395542650354  1.0000
  C   C50       1.0  0.05755382440453625  0.8236372450506196  0.80403850966524  1.0000
  C   C51       1.0  0.7886994111483221  0.2317945825370273  0.2166649104299978  1.0000
  C   C52       1.0  0.21130290191538859  0.7682084379002277  0.783327458141933  1.0000
  C   C53       1.0  0.761101952137054  0.3034696769429104  0.2738108573937126  1.0000
  C   C54       1.0  0.23890455227174798  0.6965271717685798  0.7261869405185166  1.0000
  C   C55       1.0  0.9705338962333913  0.10489310841160915  0.13013820988870609  1.0000
  C   C56       1.0  0.029462043183947677  0.8951117053808632  0.8698532376389354  1.0000
  O   O1        1.0  0.07719891950623031  0.8259003491608046  0.1111164525687798  1.0000
  O   O2        1.0  0.9228072934454663  0.17409217313144865  0.8888784498663045  1.0000
  O   O3        1.0  0.8157364609616667  0.9083004160821491  0.06356216552372722  1.0000
  O   O4        1.0  0.18427027161282436  0.09169638425623114  0.9364409695391629  1.0000
  O   O5        1.0  0.8506444362189501  0.11556620256116902  0.08118458048605245  1.0000
  O   O6        1.0  0.14936112100738802  0.8844393969692277  0.9188090338184693  1.0000
  O   O7        1.0  0.11248294270797032  0.039850388411302604  0.1262284078228078  1.0000
  O   O8        1.0  0.8875266570099075  0.9601446827408894  0.8737710760640313  1.0000
  O   O9        1.0  0.3944089575980738  0.8359808284608693  0.056179834485007435  1.0000
  O   O10       1.0  0.6055880374306355  0.16401779916856196  0.9438211430324374  1.0000
