data_image0
_chemical_formula_structural       Zn2H16C42Br12N2O18
_chemical_formula_sum              "Zn2 H16 C42 Br12 N2 O18"
_cell_length_a       11.129655799567512
_cell_length_b       18.242917312471953
_cell_length_c       19.31750136087973
_cell_angle_alpha    91.47971607407871
_cell_angle_beta     89.40070818726785
_cell_angle_gamma    105.9124369663517

_space_group_name_H-M_alt    "P 1"
_space_group_IT_number       1

loop_
  _space_group_symop_operation_xyz
  'x, y, z'

loop_
  _atom_site_type_symbol
  _atom_site_label
  _atom_site_symmetry_multiplicity
  _atom_site_fract_x
  _atom_site_fract_y
  _atom_site_fract_z
  _atom_site_occupancy
  Zn  Zn1       1.0  0.47759805839584857  0.42206098150428056  0.4962667283873116  1.0000
  Zn  Zn2       1.0  0.5491078009833642  0.5904506801300328  0.5028340994863213  1.0000
  H   H1        1.0  0.6602368114263085  0.19999365018693274  0.48217900383717455  1.0000
  H   H2        1.0  0.787048165195614  0.6113312210311291  0.8886839948806298  1.0000
  H   H3        1.0  0.6584136506786392  0.41988993345655234  0.1261969969671881  1.0000
  H   H4        1.0  0.5201661079983779  0.6075015004696523  0.874466462721159  1.0000
  H   H5        1.0  0.7200807488424416  0.4233316766504203  0.8903652794001431  1.0000
  H   H6        1.0  0.468183758964507  0.6098111075360961  0.1105304270287562  1.0000
  H   H7        1.0  0.25061592848569353  0.32592709548624305  0.508628913615695  1.0000
  H   H8        1.0  0.7646038444958163  0.6969538312904999  0.4987338006050663  1.0000
  H   H9        1.0  0.32453579946280064  0.7939649364445598  0.49463623213159014  1.0000
  H   H10       1.0  0.650876481594409  0.33535273438543806  0.48620190695621085  1.0000
  H   H11       1.0  0.35633674992934766  0.6635111608536803  0.4975566532308946  1.0000
  H   H12       1.0  0.5836526631179452  0.9470371297414887  0.3962858907868565  1.0000
  H   H13       1.0  0.385742400289388  0.054495637602386196  0.5905370110675108  1.0000
  H   H14       1.0  0.7984930407904328  0.5867788876733042  0.28771789582843604  1.0000
  H   H15       1.0  0.7123683878266077  0.6153819794275108  0.6560814177885845  1.0000
  H   H16       1.0  0.7754399007516568  0.5778480844030511  0.1263287306736487  1.0000
  C   C1        1.0  0.5588130363008688  0.5060749237962554  0.6314010927857723  1.0000
  C   C2        1.0  0.5852718108984901  0.5201106837443773  0.0728739680386354  1.0000
  C   C3        1.0  0.3485329296669377  0.25241163032620767  0.49751892439956447  1.0000
  C   C4        1.0  0.6523056133168693  0.7623593049645194  0.5039570481779094  1.0000
  C   C5        1.0  0.3466874760746563  0.1742813791915125  0.4938690970044632  1.0000
  C   C6        1.0  0.6412413261629267  0.8380203223767422  0.504425615013581  1.0000
  C   C7        1.0  0.4587686040773775  0.1542833011201026  0.4886994363532722  1.0000
  C   C8        1.0  0.5231693519232508  0.8503825030686156  0.5009137215523012  1.0000
  C   C9        1.0  0.5709192827495713  0.21335812756458944  0.4860390798531853  1.0000
  C   C10       1.0  0.4180652138805952  0.7865194100016876  0.49759040552906  1.0000
  C   C11       1.0  0.5665073443796089  0.287979752531136  0.48852798507495276  1.0000
  C   C12       1.0  0.4859439292766651  0.5035472711080471  0.3689556422018043  1.0000
  C   C13       1.0  0.43481359698612465  0.7145864300767855  0.4985785828247984  1.0000
  C   C14       1.0  0.5220517045429675  0.04271121597300009  0.43406689599419923  1.0000
  C   C15       1.0  0.44645918972433646  0.9585743458320547  0.5524390607617987  1.0000
  C   C16       1.0  0.7552286932987043  0.5324986656132537  0.4808828669554757  1.0000
  C   C17       1.0  0.278443122797583  0.4874044345412756  0.5319641928707313  1.0000
  C   C18       1.0  0.5406124265635981  0.9706318758586291  0.4391152572725047  1.0000
  C   C19       1.0  0.42853023293510256  0.030880157152573397  0.5475933991219648  1.0000
  C   C20       1.0  0.5042610362030118  0.9276307726780998  0.4985575547164416  1.0000
  C   C21       1.0  0.46712608790624444  0.07459175157560338  0.48866778128962807  1.0000
  C   C22       1.0  0.8848655754324425  0.5231005145559989  0.4804567280668195  1.0000
  C   C23       1.0  0.5048035868988235  0.5079359760705415  0.2916615734415302  1.0000
  C   C24       1.0  0.1497046000598132  0.49437905739998916  0.546028380296363  1.0000
  C   C25       1.0  0.9243737364092796  0.4748629595772228  0.520247186303294  1.0000
  C   C26       1.0  0.044652807869304756  0.4576285605601525  0.511975859548116  1.0000
  C   C27       1.0  0.6262950365208582  0.5405367877767162  0.2676692102022926  1.0000
  C   C28       1.0  0.6722044111443068  0.5622692520456382  0.7389013511171427  1.0000
  C   C29       1.0  0.6500276059748841  0.5442015365665681  0.196093806677041  1.0000
  C   C30       1.0  0.6916166525881521  0.5624907551019331  0.8112178746948899  1.0000
  C   C31       1.0  0.5545520055999588  0.5144071899177618  0.14795534993549353  1.0000
  C   C32       1.0  0.6087045294941619  0.5098115071229755  0.8529306720217988  1.0000
  C   C33       1.0  0.4320408288910045  0.4808491129871014  0.1729150620018203  1.0000
  C   C34       1.0  0.5723620122798394  0.5054841701241344  0.7082254394308976  1.0000
  C   C35       1.0  0.5076230478762795  0.45402723977991843  0.8220078854836501  1.0000
  C   C36       1.0  0.4076740463910227  0.4787303091756313  0.24422694264376327  1.0000
  C   C37       1.0  0.4896991346916976  0.45133958581329375  0.7504555240120325  1.0000
  C   C38       1.0  0.6490548680458091  0.47074860355856163  0.0417146014493639  1.0000
  C   C39       1.0  0.5590592584225361  0.571193600426916  0.9611163461308436  1.0000
  C   C40       1.0  0.6664503694935179  0.4709625540861211  0.9696689479509429  1.0000
  C   C41       1.0  0.5434541187593493  0.5719039216864271  0.03309550080052049  1.0000
  C   C42       1.0  0.618074182352025  0.5195409179425283  0.9296445586004438  1.0000
  Br  Br1       1.0  0.036399727371602374  0.37752737362141175  0.445185827648551  1.0000
  Br  Br2       1.0  0.39540256286666425  0.3862967568843416  0.881442463691954  1.0000
  Br  Br3       1.0  0.24321697638399795  0.4391816908257055  0.2791747585145147  1.0000
  Br  Br4       1.0  0.3460605612766016  0.3797507973387296  0.7130386804364477  1.0000
  Br  Br5       1.0  0.8244856777553053  0.4203595716417609  0.5932216482801991  1.0000
  Br  Br6       1.0  0.1898330605068637  0.10018940200477999  0.49443971382448376  1.0000
  Br  Br7       1.0  0.7883305067160435  0.9197714410250625  0.5114726029307022  1.0000
  Br  Br8       1.0  0.5703038591857991  0.09542511444686848  0.3501799274019746  1.0000
  Br  Br9       1.0  0.39471237555301975  0.90410162661594  0.635022401701029  1.0000
  Br  Br10      1.0  0.14073787409542846  0.5719468234537927  0.6117787177654392  1.0000
  Br  Br11      1.0  0.9963564231266064  0.5815462314990538  0.4145881848145549  1.0000
  Br  Br12      1.0  0.30385119151938506  0.43736841202360205  0.1081733764043094  1.0000
  N   N1        1.0  0.4575943902945739  0.3073066538943863  0.494424434543312  1.0000
  N   N2        1.0  0.5495379688254473  0.7026738507172537  0.502179141614512  1.0000
  O   O1        1.0  0.5138609987277718  0.4440262172749526  0.5987740032601606  1.0000
  O   O2        1.0  0.7511714442967514  0.6175616923543146  0.7028788933495136  1.0000
  O   O3        1.0  0.7708165130478406  0.5783746442156641  0.1770838336360967  1.0000
  O   O4        1.0  0.7893550548295708  0.6174691132553676  0.8383077793043228  1.0000
  O   O5        1.0  0.6899320932421559  0.4192155758400347  0.0788283830676946  1.0000
  O   O6        1.0  0.5098015756386686  0.6184963763516221  0.9236512967271935  1.0000
  O   O7        1.0  0.723742982987808  0.4201253263158903  0.9406727592375715  1.0000
  O   O8        1.0  0.48269774488036177  0.6212484699047351  0.061512489403448  1.0000
  O   O9        1.0  0.24050695861518528  0.2698755765095626  0.5038784612424864  1.0000
  O   O10       1.0  0.7658234633875551  0.7514860411967416  0.5055156829206453  1.0000
  O   O11       1.0  0.5038119528919863  0.5666702036607772  0.4019379251845834  1.0000
  O   O12       1.0  0.5975827531108919  0.5717282069397739  0.6028450013794  1.0000
  O   O13       1.0  0.4589751982489361  0.43753852355352757  0.39417848086684865  1.0000
  O   O14       1.0  0.6696507779128282  0.4706495016297081  0.4783629039523589  1.0000
  O   O15       1.0  0.3646020994060137  0.5489935051767034  0.5346596139381461  1.0000
  O   O16       1.0  0.7397200335973295  0.5991800405993288  0.4829880833853295  1.0000
  O   O17       1.0  0.29308342107533747  0.4219131179953023  0.5171700134925246  1.0000
  O   O18       1.0  0.7207573424659941  0.567858088450812  0.31370720710540206  1.0000
