data_image0
_chemical_formula_structural       Zn2H15C46I9N2O8
_chemical_formula_sum              "Zn2 H15 C46 I9 N2 O8"
_cell_length_a       12.581457279982116
_cell_length_b       13.545610639011757
_cell_length_c       15.279988609762405
_cell_angle_alpha    86.42548279597433
_cell_angle_beta     69.01383426503322
_cell_angle_gamma    80.0452087207188

_space_group_name_H-M_alt    "P 1"
_space_group_IT_number       1

loop_
  _space_group_symop_operation_xyz
  'x, y, z'

loop_
  _atom_site_type_symbol
  _atom_site_label
  _atom_site_symmetry_multiplicity
  _atom_site_fract_x
  _atom_site_fract_y
  _atom_site_fract_z
  _atom_site_occupancy
  Zn  Zn1       1.0  0.625011700299254  0.5079299632971229  0.4643320663684563  1.0000
  Zn  Zn2       1.0  0.3752076225586476  0.48577068286910224  0.5332837050690743  1.0000
  H   H1        1.0  0.22408440737263652  0.6299056663284192  0.4854387651272488  1.0000
  H   H2        1.0  0.3491062935994478  0.5988745241087089  0.2627720482071112  1.0000
  H   H3        1.0  0.24917241296925832  0.9569384607632476  0.7433644889083695  1.0000
  H   H4        1.0  0.5603282912198537  0.8215040021950984  0.4540394591326374  1.0000
  H   H5        1.0  0.6938715624275176  0.23045933495933477  0.32036487325563456  1.0000
  H   H6        1.0  0.6377000523263658  0.9250608790959094  0.36438552042785244  1.0000
  H   H7        1.0  0.7356809656794282  0.05475561701808122  0.2615888680192455  1.0000
  H   H8        1.0  0.7229653882164228  0.6852372998075611  0.4057408486636619  1.0000
  H   H9        1.0  0.08256923884085407  0.7337511392921244  0.426675236035436  1.0000
  H   H10       1.0  0.8965230083874471  0.7585482707179241  0.39962262138929117  1.0000
  H   H11       1.0  0.9612129153853883  0.3253001542482396  0.5387146427687881  1.0000
  H   H12       1.0  0.07868873824309475  0.24616998272507126  0.6306743437292042  1.0000
  H   H13       1.0  0.7873457954965061  0.3810461580709444  0.9966746242306288  1.0000
  H   H14       1.0  0.6807917026275445  0.44528781783632354  0.7227865102928561  1.0000
  H   H15       1.0  0.2729255978286104  0.6881595864156724  0.1428059467102543  1.0000
  C   C1        1.0  0.5560099675502739  0.3044087433511039  0.482356038360436  1.0000
  C   C2        1.0  0.42324194740864834  0.5717900724139967  0.11332678558503059  1.0000
  C   C3        1.0  0.7122041579719534  0.4205092951005654  0.9824141838477588  1.0000
  C   C4        1.0  0.7099125600241858  0.42436059521978836  0.8936987521510958  1.0000
  C   C5        1.0  0.6118945872083116  0.47343109271304235  0.871814090289867  1.0000
  C   C6        1.0  0.5159344977302994  0.5235814134605266  0.9467543021338473  1.0000
  C   C7        1.0  0.41546517182946013  0.5732016946198472  0.9278952124940076  1.0000
  C   C8        1.0  0.33373645425622556  0.6404043714918757  0.00026865939521059464  1.0000
  C   C9        1.0  0.3350404336880359  0.636461781799305  0.0895809428715211  1.0000
  C   C10       1.0  0.6054073047870431  0.4751906001087037  0.7823006580329378  1.0000
  C   C11       1.0  0.5024313541964459  0.5090675022501544  0.7664054331542474  1.0000
  C   C12       1.0  0.5082985766480377  0.49902258562955387  0.6663164928657467  1.0000
  C   C13       1.0  0.4045720422282385  0.5507535716223944  0.841990027024714  1.0000
  C   C14       1.0  0.3170241019489664  0.927906480668476  0.6787309310788316  1.0000
  C   C15       1.0  0.40501802353009  0.7968822215144727  0.5614857121505565  1.0000
  C   C16       1.0  0.6621104027606817  0.17011461932322905  0.368030357175698  1.0000
  C   C17       1.0  0.6829979504939486  0.07190745790882153  0.3346561591971025  1.0000
  C   C18       1.0  0.6297012686038527  0.9988558730288735  0.39286706412470823  1.0000
  C   C19       1.0  0.5611194746195025  0.0199358065250905  0.48760950526300223  1.0000
  C   C20       1.0  0.5522769385913971  0.11654451928870203  0.5245118427536468  1.0000
  C   C21       1.0  0.4898028732934421  0.9504238455159641  0.5457987785576179  1.0000
  C   C22       1.0  0.4093940985029008  0.9813267688565691  0.6362837976278898  1.0000
  C   C23       1.0  0.429079611356478  0.6893092494142793  0.5305536626872112  1.0000
  C   C24       1.0  0.4300244970818951  0.0647227755676383  0.6791716074379651  1.0000
  C   C25       1.0  0.5027158549782557  0.12802990976887685  0.6256454933286193  1.0000
  C   C26       1.0  0.49055627131442475  0.8545218769817711  0.5157646647422284  1.0000
  C   C27       1.0  0.3097544114174652  0.8413610138221731  0.6383357245827384  1.0000
  C   C28       1.0  0.5948808845454747  0.19383878595652962  0.46093266665101856  1.0000
  C   C29       1.0  0.8926383305021446  0.6791276617870639  0.4135831478919556  1.0000
  C   C30       1.0  0.17805158184108189  0.36687540466496676  0.6058578958834673  1.0000
  C   C31       1.0  0.09486901584057958  0.31678138313975523  0.5942784352042524  1.0000
  C   C32       1.0  0.030858255587098416  0.3609479564511631  0.5416927456160323  1.0000
  C   C33       1.0  0.04931295350560558  0.4550571291225084  0.4991040330231584  1.0000
  C   C34       1.0  0.5118445364058672  0.5119603363964346  0.3259406933519742  1.0000
  C   C35       1.0  0.1389193581109893  0.4987171602340155  0.5106933913931472  1.0000
  C   C36       1.0  0.97328153555987  0.5129618056075957  0.45573319991202516  1.0000
  C   C37       1.0  0.9804864139646624  0.6168594720537544  0.4373893866224066  1.0000
  C   C38       1.0  0.07561405851902943  0.6553802139309541  0.4450713600797441  1.0000
  C   C39       1.0  0.15436170508736777  0.598080126424776  0.4773774007465974  1.0000
  C   C40       1.0  0.8861709361434362  0.47763850804330593  0.43245932710608065  1.0000
  C   C41       1.0  0.7992744494167352  0.6395080248453909  0.4133449098872576  1.0000
  C   C42       1.0  0.4235273018699245  0.5632994777602252  0.20514652138940906  1.0000
  C   C43       1.0  0.5184190593607667  0.5117332905015318  0.22535516940597947  1.0000
  C   C44       1.0  0.6154964322756554  0.4658282651444738  0.1520356060605224  1.0000
  C   C45       1.0  0.616699721318163  0.4681231217911732  0.05879905648956906  1.0000
  C   C46       1.0  0.5188974607479436  0.5215383526462677  0.03941470536434371  1.0000
  I   I1        1.0  0.354822079933939  0.07766544134985053  0.8260072910494074  1.0000
  I   I2        1.0  0.56609658739481  0.2291418729473875  0.6862103307010017  1.0000
  I   I3        1.0  0.7619379199602958  0.38886262819404044  0.17928513183207437  1.0000
  I   I4        1.0  0.9064424877006798  0.3280759701229101  0.3889295270949519  1.0000
  I   I5        1.0  0.2405670842888482  0.3091509415213452  0.7111702552256319  1.0000
  I   I6        1.0  0.8584705566393038  0.3561092403408424  0.786316816812395  1.0000
  I   I7        1.0  0.23670846559468825  0.556792613225987  0.841662280093388  1.0000
  I   I8        1.0  0.23298475272636665  0.7705061960162356  0.9688350755348552  1.0000
  I   I9        1.0  0.15033877621721808  0.7894703156357608  0.6928618812481419  1.0000
  N   N1        1.0  0.7971657788966907  0.5390357003211081  0.4209097834971018  1.0000
  N   N2        1.0  0.20545988500404627  0.45179220970343453  0.5609605421524863  1.0000
  O   O1        1.0  0.6338663989103208  0.3595205702959633  0.4537320153473488  1.0000
  O   O2        1.0  0.448048461115377  0.3343070725060856  0.518640254822003  1.0000
  O   O3        1.0  0.6084114283129054  0.4962925697128499  0.6038512387012959  1.0000
  O   O4        1.0  0.41609200537427427  0.49486185171031144  0.6518066507492577  1.0000
  O   O5        1.0  0.5358133927148501  0.6526710863870593  0.49808755917041486  1.0000
  O   O6        1.0  0.3458987031270766  0.6426552309442926  0.5408621053197464  1.0000
  O   O7        1.0  0.599500048247009  0.5323822323425135  0.3392984645738437  1.0000
  O   O8        1.0  0.41846865979832865  0.4933126478308339  0.38815451564924086  1.0000
