data_image0
_chemical_formula_structural       Cd2H16C16Br2N10
_chemical_formula_sum              "Cd2 H16 C16 Br2 N10"
_cell_length_a       7.625928233652922
_cell_length_b       7.505798880530753
_cell_length_c       10.379042942509127
_cell_angle_alpha    73.34606215960015
_cell_angle_beta     79.83780357674561
_cell_angle_gamma    83.1838675068406

_space_group_name_H-M_alt    "P 1"
_space_group_IT_number       1

loop_
  _space_group_symop_operation_xyz
  'x, y, z'

loop_
  _atom_site_type_symbol
  _atom_site_label
  _atom_site_symmetry_multiplicity
  _atom_site_fract_x
  _atom_site_fract_y
  _atom_site_fract_z
  _atom_site_occupancy
  Cd  Cd1       1.0  0.31060555515585975  0.4255952029593857  0.16607469716676346  1.0000
  Cd  Cd2       1.0  0.6893875181939251  0.5744034748979701  0.8339259100361998  1.0000
  H   H1        1.0  0.0351844230765721  0.2275988193542133  0.11691060646079164  1.0000
  H   H2        1.0  0.964813201399977  0.772391554917391  0.8830932032449822  1.0000
  H   H3        1.0  0.20941034725216673  0.20970413529937562  0.0016656494375836771  1.0000
  H   H4        1.0  0.7905879878006773  0.7902946114809382  0.9983362754950419  1.0000
  H   H5        1.0  0.34421187179983553  0.2921090531426955  0.4881172869151484  1.0000
  H   H6        1.0  0.6557860730692083  0.7078965883738205  0.5118793409311237  1.0000
  H   H7        1.0  0.28371745165290463  0.014321470148438204  0.6914780471091575  1.0000
  H   H8        1.0  0.7162844317399506  0.9856828953468337  0.30852322942948246  1.0000
  H   H9        1.0  0.18340036075811383  0.7293201212058661  0.6547139404902822  1.0000
  H   H10       1.0  0.8166126187360518  0.27067871074750377  0.34528630991069764  1.0000
  H   H11       1.0  0.15101958270113866  0.7286615963385117  0.41779292818127084  1.0000
  H   H12       1.0  0.8489839105986762  0.2713386134923823  0.582210025723846  1.0000
  H   H13       1.0  0.35772681508845483  0.9721941794447205  0.13911664483457284  1.0000
  H   H14       1.0  0.6422767417596873  0.0278059924352334  0.8608843824202808  1.0000
  H   H15       1.0  0.1363115911366037  0.9076212973259175  0.18519618020675196  1.0000
  H   H16       1.0  0.8636951456176902  0.09237191940195541  0.8148059863736421  1.0000
  C   C1        1.0  0.3010751790445171  0.16323662551624102  0.47904504776313667  1.0000
  C   C2        1.0  0.6989241769529002  0.8367663113899367  0.5209558586678327  1.0000
  C   C3        1.0  0.26724464903378486  0.009839758702646898  0.5904271892555001  1.0000
  C   C4        1.0  0.7327595784828844  0.9901701418626914  0.4095697378187849  1.0000
  C   C5        1.0  0.2124628967586304  0.8510267306567627  0.5691136319025247  1.0000
  C   C6        1.0  0.7875433626229693  0.14897210053251803  0.4308893062994628  1.0000
  C   C7        1.0  0.19395209396784455  0.8499135988243368  0.43829120244201647  1.0000
  C   C8        1.0  0.806054053824063  0.15008796369377106  0.5617082682702446  1.0000
  C   C9        1.0  0.23246215004513002  0.0089839630186859  0.3311290650951547  1.0000
  C   C10       1.0  0.7675375880024903  0.9910134163524872  0.6688739596896126  1.0000
  C   C11       1.0  0.22358321207263288  0.013780869548284596  0.18568286489308858  1.0000
  C   C12       1.0  0.7764191486929236  0.9862178814855795  0.8143176400239581  1.0000
  C   C13       1.0  0.5908904866638239  0.6268575098675625  0.2571563500345063  1.0000
  C   C14       1.0  0.40911585990667027  0.37314260159651264  0.742840519459527  1.0000
  C   C15       1.0  0.8936368418688048  0.6203334095345027  0.2427658345444001  1.0000
  C   C16       1.0  0.1063694248861609  0.3796694142829224  0.7572266041347716  1.0000
  Br  Br1       1.0  0.32645302082682554  0.7114196297133971  0.9352439518977889  1.0000
  Br  Br2       1.0  0.6735399889746246  0.28857908609489874  0.06475858195543077  1.0000
  N   N1        1.0  0.28438967950101096  0.16153423584774623  0.35276663548338416  1.0000
  N   N2        1.0  0.7156125061265187  0.8384672844658781  0.6472323285941923  1.0000
  N   N3        1.0  0.1713166271869682  0.2011270971835231  0.10290514532007931  1.0000
  N   N4        1.0  0.8286819783263866  0.7988688233906133  0.897095430476611  1.0000
  N   N5        1.0  0.4471950496299825  0.5700787922264398  0.2900447648928973  1.0000
  N   N6        1.0  0.5527925051725833  0.429904511512106  0.7099597797896421  1.0000
  N   N7        1.0  0.7407112899111398  0.7051498115492549  0.21531663374125284  1.0000
  N   N8        1.0  0.25927207406490277  0.29485570684327195  0.7846797419864018  1.0000
  N   N9        1.0  0.03928488334400984  0.5583242270145661  0.26154512578224837  1.0000
  N   N10       1.0  0.9607021398014978  0.44168950859344136  0.7384403907857828  1.0000
