data_image0
_chemical_formula_structural       Li4H36C20Br4N4O8
_chemical_formula_sum              "Li4 H36 C20 Br4 N4 O8"
_cell_length_a       5.015530345152328
_cell_length_b       9.63696450403674
_cell_length_c       15.437738867368122
_cell_angle_alpha    89.99998880209023
_cell_angle_beta     90.00081117954694
_cell_angle_gamma    89.99967839981495

_space_group_name_H-M_alt    "P 1"
_space_group_IT_number       1

loop_
  _space_group_symop_operation_xyz
  'x, y, z'

loop_
  _atom_site_type_symbol
  _atom_site_label
  _atom_site_symmetry_multiplicity
  _atom_site_fract_x
  _atom_site_fract_y
  _atom_site_fract_z
  _atom_site_occupancy
  Li  Li1       1.0  0.9746500407729713  0.4989418573403982  0.9391644070782873  1.0000
  Li  Li2       1.0  0.47466700924871935  0.0010659684907495003  0.43916322997186086  1.0000
  Li  Li3       1.0  0.47466429265221427  0.5010439887871528  0.060820220422804994  1.0000
  Li  Li4       1.0  0.9746872002827942  0.9989447816845354  0.5608259319640964  1.0000
  H   H1        1.0  0.299637613200133  0.7662365909136782  0.7683683541361502  1.0000
  H   H2        1.0  0.7996101760363814  0.7337661399251232  0.2683669068642941  1.0000
  H   H3        1.0  0.7996200207105701  0.2337767546813439  0.23163358593951947  1.0000
  H   H4        1.0  0.29963350127129473  0.2662254145969528  0.7316317943638637  1.0000
  H   H5        1.0  0.816838755687634  0.708162549672963  0.8291602154658475  1.0000
  H   H6        1.0  0.3168386849426669  0.7918110607448342  0.3291505734372037  1.0000
  H   H7        1.0  0.3168359765636737  0.2918299913708822  0.17084698781012256  1.0000
  H   H8        1.0  0.8168719357950635  0.20817629189035367  0.6708533911074354  1.0000
  H   H9        1.0  0.5994691503252058  0.802138534927373  0.7226602914525911  1.0000
  H   H10       1.0  0.0994321934471714  0.6978565001594248  0.22265390235973107  1.0000
  H   H11       1.0  0.0994459750999397  0.1978546519658124  0.27733940982145805  1.0000
  H   H12       1.0  0.5994490372077692  0.3021408374688476  0.7773445033076243  1.0000
  H   H13       1.0  0.2504411996371871  0.9997790826646454  0.7693405132142956  1.0000
  H   H14       1.0  0.7503783559009065  0.500231057858649  0.26933910116726173  1.0000
  H   H15       1.0  0.7503662270674951  0.00024063520971400007  0.23064694410343375  1.0000
  H   H16       1.0  0.2503891949535415  0.4997647936376668  0.7306561292173867  1.0000
  H   H17       1.0  0.6057427739189976  0.022642030745842607  0.7679357779659239  1.0000
  H   H18       1.0  0.105668959406664  0.4773409902829543  0.2679286987673705  1.0000
  H   H19       1.0  0.10566355289887498  0.9773521752628085  0.23206071392321087  1.0000
  H   H20       1.0  0.6056855285643507  0.5226532158019382  0.7320742706321821  1.0000
  H   H21       1.0  0.2694378331891799  0.9450200917017711  0.9263337604616664  1.0000
  H   H22       1.0  0.7693983346287325  0.5549702391920165  0.4263271580861883  1.0000
  H   H23       1.0  0.7693994702677003  0.054998532005974717  0.073661559620227  1.0000
  H   H24       1.0  0.2694349812771932  0.44503385712569365  0.5736675142241551  1.0000
  H   H25       1.0  0.5074489376857231  0.08153933562668671  0.9165913793916259  1.0000
  H   H26       1.0  0.0073897042653712  0.41844913035543385  0.4165888434743792  1.0000
  H   H27       1.0  0.007383959579748001  0.9184624260965465  0.083398171703152  1.0000
  H   H28       1.0  0.507427242802116  0.5815453676922361  0.5834110717954744  1.0000
  H   H29       1.0  0.6735524532206725  0.835236990201459  0.9846897694046461  1.0000
  H   H30       1.0  0.1735397729634727  0.6647370088923878  0.4846807943216404  1.0000
  H   H31       1.0  0.1735663415887601  0.16474975050288523  0.015318054222603896  1.0000
  H   H32       1.0  0.6735770280003237  0.3352518071573627  0.5153257337742474  1.0000
  H   H33       1.0  0.8744861942761377  0.9177429717239891  0.904665563906434  1.0000
  H   H34       1.0  0.3744544506031318  0.5822252611220975  0.40465530572634373  1.0000
  H   H35       1.0  0.3744644831299127  0.0822348706772829  0.0953470930868932  1.0000
  H   H36       1.0  0.874496226679149  0.4177733347021686  0.595356703502162  1.0000
  C   C1        1.0  0.4668377129871785  0.6354887251696226  0.8968636118555012  1.0000
  C   C2        1.0  0.9668527538722386  0.8644979131619052  0.3968751001825694  1.0000
  C   C3        1.0  0.9668471666267707  0.3645075208869529  0.10312486539862681  1.0000
  C   C4        1.0  0.4669019090729094  0.135524274568418  0.6031237414461188  1.0000
  C   C5        1.0  0.6287532616126086  0.7506492335429371  0.853798092312523  1.0000
  C   C6        1.0  0.12875164764401603  0.7493425702284213  0.3538014119674671  1.0000
  C   C7        1.0  0.12875387289350473  0.2493521676795112  0.14619915596085054  1.0000
  C   C8        1.0  0.6287754251780983  0.250651567265237  0.6462055528022788  1.0000
  C   C9        1.0  0.439397079574313  0.9663471095655822  0.7980530672945887  1.0000
  C   C10       1.0  0.9393378691091386  0.5336520860007782  0.2980522979656967  1.0000
  C   C11       1.0  0.9393305013447135  0.03366063251317541  0.2019449969185487  1.0000
  C   C12       1.0  0.43934784191863935  0.4663525431265115  0.701947709438798  1.0000
  C   C13       1.0  0.4584818404976687  0.975726579028745  0.8960493280343796  1.0000
  C   C14       1.0  0.9584446612304729  0.524260084402627  0.39604013925406883  1.0000
  C   C15       1.0  0.9584271465239527  0.024272804960439504  0.1039553037740006  1.0000
  C   C16       1.0  0.4584663194963666  0.47574033725528164  0.6039599582161372  1.0000
  C   C17       1.0  0.67834593710608  0.8713583236884189  0.9173774591791712  1.0000
  C   C18       1.0  0.17832367060075432  0.6286260539269648  0.41736460295436467  1.0000
  C   C19       1.0  0.17833316273134872  0.12863462884051563  0.0826316824998727  1.0000
  C   C20       1.0  0.6783614104955902  0.37137935064737354  0.5826400043950314  1.0000
  Br  Br1       1.0  0.9637293569427359  0.2654721020712429  0.8526024995164007  1.0000
  Br  Br2       1.0  0.4636740675139209  0.2345586056990001  0.3526246064174074  1.0000
  Br  Br3       1.0  0.463700950664645  0.7344919854673081  0.1474183511661167  1.0000
  Br  Br4       1.0  0.9637921285831086  0.7654698173955907  0.6474104951364481  1.0000
  N   N1        1.0  0.4819233852056968  0.8148761161714049  0.7788184968086114  1.0000
  N   N2        1.0  0.9819064327584143  0.6851250329087365  0.278819000205054  1.0000
  N   N3        1.0  0.9819038702958023  0.1851294241467656  0.22118106344085933  1.0000
  N   N4        1.0  0.4819208228311922  0.314879469737825  0.7211844466240293  1.0000
  O   O1        1.0  0.21889956782824527  0.6296065373800417  0.8832891490767877  1.0000
  O   O2        1.0  0.7189065711456166  0.8703974435743619  0.3833058186003484  1.0000
  O   O3        1.0  0.7188915915260949  0.3703821439746661  0.11668002239481007  1.0000
  O   O4        1.0  0.21892247095676248  0.129611991144067  0.616687967962683  1.0000
  O   O5        1.0  0.6005259497319814  0.5560205512867854  0.9465376581729001  1.0000
  O   O6        1.0  0.10055018581390127  0.9439796155848514  0.44654418727888867  1.0000
  O   O7        1.0  0.10055046252656295  0.44398404677833997  0.05346204819264949  1.0000
  O   O8        1.0  0.6005880340516967  0.05603535910191942  0.5534386773868363  1.0000
