data_image0
_chemical_formula_structural       Cd2H28C36N4O14
_chemical_formula_sum              "Cd2 H28 C36 N4 O14"
_cell_length_a       8.614618684088777
_cell_length_b       10.220653231108114
_cell_length_c       10.845230221365822
_cell_angle_alpha    65.73838070709337
_cell_angle_beta     87.0233304226522
_cell_angle_gamma    89.5133125860826

_space_group_name_H-M_alt    "P 1"
_space_group_IT_number       1

loop_
  _space_group_symop_operation_xyz
  'x, y, z'

loop_
  _atom_site_type_symbol
  _atom_site_label
  _atom_site_symmetry_multiplicity
  _atom_site_fract_x
  _atom_site_fract_y
  _atom_site_fract_z
  _atom_site_occupancy
  Cd  Cd1       1.0  0.2729046019722361  0.07022343883132011  0.656362615480333  1.0000
  Cd  Cd2       1.0  0.7270940666884514  0.9297790685146837  0.34364373315327157  1.0000
  H   H1        1.0  0.9319845476569029  0.6659008676537255  0.8651504427403295  1.0000
  H   H2        1.0  0.0680226945763565  0.3340976621831615  0.1348471150255719  1.0000
  H   H3        1.0  0.6207934085486286  0.45485920147402237  0.9878645139858974  1.0000
  H   H4        1.0  0.37921305873808814  0.5451338687301118  0.012128750581581494  1.0000
  H   H5        1.0  0.770411005199925  0.008026875010898505  0.8541785775227879  1.0000
  H   H6        1.0  0.22958732805511065  0.9919615714585389  0.14582315593958123  1.0000
  H   H7        1.0  0.6410111320524762  0.9099384804451701  0.9923113299133065  1.0000
  H   H8        1.0  0.3589859547034919  0.09005205528384859  0.007689613255550397  1.0000
  H   H9        1.0  0.34996583055449554  0.016841676967729306  0.4183723948752274  1.0000
  H   H10       1.0  0.6500431956774265  0.983165589246575  0.5816290671104624  1.0000
  H   H11       1.0  0.16745174080674727  0.003358179376320398  0.438597064798131  1.0000
  H   H12       1.0  0.8325570904988029  0.9966533809444654  0.5614036378371949  1.0000
  H   H13       1.0  0.5003198346519754  0.23378847194069147  0.3743628229234233  1.0000
  H   H14       1.0  0.49967799886509573  0.7662107130526722  0.6256374723314194  1.0000
  H   H15       1.0  0.5810524843886428  0.4808442196247427  0.2134958192747902  1.0000
  H   H16       1.0  0.4189429058184189  0.5191591308569417  0.7865010547194727  1.0000
  H   H17       1.0  0.45654452914819627  0.6929111895133248  0.2391687697659463  1.0000
  H   H18       1.0  0.5434519656610776  0.30709116966824007  0.7608321559471348  1.0000
  H   H19       1.0  0.2683706338207372  0.7824675994665566  0.3704605157922956  1.0000
  H   H20       1.0  0.7316258963415407  0.21753262895033032  0.6295430904378989  1.0000
  H   H21       1.0  0.07659669581562414  0.7334629145810467  0.5604649330035087  1.0000
  H   H22       1.0  0.9233985773386452  0.2665415273446711  0.4395342820792862  1.0000
  H   H23       1.0  0.9223049838206878  0.5520134167349227  0.7627850068734077  1.0000
  H   H24       1.0  0.0776893476461069  0.4479866700329467  0.2372140967730374  1.0000
  H   H25       1.0  0.881091533850409  0.29469621399545787  0.9282334874614763  1.0000
  H   H26       1.0  0.11890966698764062  0.705304226049783  0.07176900023173971  1.0000
  H   H27       1.0  0.029988314646928395  0.1048387095509966  0.8851932339054329  1.0000
  H   H28       1.0  0.9700139554403222  0.8951628699588028  0.11481062498948788  1.0000
  C   C1        1.0  0.007825780478071934  0.8901834020965393  0.7773385346749747  1.0000
  C   C2        1.0  0.9921763548798808  0.10982033423965022  0.22266632504992148  1.0000
  C   C3        1.0  0.8904400986069376  0.7730404329272673  0.8467484938950988  1.0000
  C   C4        1.0  0.1095647108252464  0.22696013814868365  0.15324924346411  1.0000
  C   C5        1.0  0.7441685999886544  0.7871475980346786  0.8898773630726922  1.0000
  C   C6        1.0  0.2558320279968029  0.21284414713824162  0.11011933017714169  1.0000
  C   C7        1.0  0.6399668287061004  0.6589212671890506  0.9457203211407545  1.0000
  C   C8        1.0  0.3600302475409336  0.3410713927892247  0.054277021174222256  1.0000
  C   C9        1.0  0.6790418498196261  0.9241058748306586  0.8888305962330775  1.0000
  C   C10       1.0  0.3209587638306814  0.07588375260843348  0.1111706182074101  1.0000
  C   C11       1.0  0.5406673595668394  0.9857641200660793  0.8020610043783877  1.0000
  C   C12       1.0  0.45933186234616846  0.014231877708233802  0.197936819744676  1.0000
  C   C13       1.0  0.4506877661505299  0.3268171969926712  0.38616217040896567  1.0000
  C   C14       1.0  0.5493075672008203  0.6731851076529409  0.6138388048541684  1.0000
  C   C15       1.0  0.4939969015302878  0.46663088280872234  0.2944293260142601  1.0000
  C   C16       1.0  0.5059972775307032  0.5333724261678582  0.7055694382035966  1.0000
  C   C17       1.0  0.4260210878337389  0.582749111319849  0.3090519596461974  1.0000
  C   C18       1.0  0.5739742029970359  0.41725426522353365  0.6909485956951471  1.0000
  C   C19       1.0  0.31567936532955093  0.5580736328453995  0.4177256460313288  1.0000
  C   C20       1.0  0.6843161204275958  0.4419254495915014  0.5822756686603867  1.0000
  C   C21       1.0  0.23961715635864786  0.672253143438283  0.4397846282022684  1.0000
  C   C22       1.0  0.7603805672731951  0.32774819186603577  0.5602157475457757  1.0000
  C   C23       1.0  0.13335271365300372  0.6448678251802562  0.5456008453095363  1.0000
  C   C24       1.0  0.866643940729638  0.35513237065949704  0.45439815923679555  1.0000
  C   C25       1.0  0.09707658794376779  0.5006433044131811  0.639432317468355  1.0000
  C   C26       1.0  0.9029199742301515  0.499357976355185  0.36056810782974213  1.0000
  C   C27       1.0  0.9877319358353132  0.4663854389040906  0.7501324585159779  1.0000
  C   C28       1.0  0.012264608662107398  0.5336169072466248  0.2498666265235627  1.0000
  C   C29       1.0  0.9622092707053657  0.3251631559461288  0.8401356913484719  1.0000
  C   C30       1.0  0.037790598592458494  0.6748415171542277  0.15986516620765198  1.0000
  C   C31       1.0  0.0448186855753292  0.21790198650772646  0.8164498171413967  1.0000
  C   C32       1.0  0.9551835066383418  0.7821027956645211  0.18355094131462818  1.0000
  C   C33       1.0  0.17214698608590598  0.38414940759896143  0.6223329905171369  1.0000
  C   C34       1.0  0.827850567463635  0.6158562152964108  0.37766570554376944  1.0000
  C   C35       1.0  0.2812480926695144  0.41326563134886374  0.507745275803984  1.0000
  C   C36       1.0  0.7187496983269739  0.5867346255422633  0.49225459952906897  1.0000
  N   N1        1.0  0.3475795106287052  0.30118032761614427  0.48955700971949767  1.0000
  N   N2        1.0  0.6524181704825694  0.6988220795859447  0.5104429461067638  1.0000
  N   N3        1.0  0.1440444345307768  0.24632549765386358  0.7103336604167083  1.0000
  N   N4        1.0  0.8559578498916166  0.7536781995897642  0.2896656772875587  1.0000
  O   O1        1.0  0.13373995229176933  0.8825628448092503  0.8362500447853874  1.0000
  O   O2        1.0  0.8662601826384346  0.11743327265526203  0.1637569331553337  1.0000
  O   O3        1.0  0.9809175645651322  0.987451682866414  0.6615497489787501  1.0000
  O   O4        1.0  0.019080497813717994  0.0125605301983072  0.3384611033897329  1.0000
  O   O5        1.0  0.4996593996150408  0.66969470782319  0.97465774595468  1.0000
  O   O6        1.0  0.5003507718158957  0.3302942253668704  0.02533520897624444  1.0000
  O   O7        1.0  0.7045006748935165  0.5350333232861999  0.9603295757107587  1.0000
  O   O8        1.0  0.29550832791192516  0.4649544965010009  0.039665689365541774  1.0000
  O   O9        1.0  0.5124158670541944  0.9455832553960305  0.7071580283898058  1.0000
  O   O10       1.0  0.48758329466173933  0.05441487965838119  0.2928380355529114  1.0000
  O   O11       1.0  0.4589177964431244  0.0776940692474  0.8240602750500018  1.0000
  O   O12       1.0  0.5410801966473144  0.9223029524041519  0.175938099038092  1.0000
  O   O13       1.0  0.2639625301489019  0.9861778863205047  0.48999635332771146  1.0000
  O   O14       1.0  0.7360462763125709  0.013833680515709495  0.5100052696443881  1.0000
