data_image0
_chemical_formula_structural       Sm4H28C32S4O28
_chemical_formula_sum              "Sm4 H28 C32 S4 O28"
_cell_length_a       7.978321252101958
_cell_length_b       9.93881210819285
_cell_length_c       14.346289992385806
_cell_angle_alpha    90.00046474172883
_cell_angle_beta     90.00057998961113
_cell_angle_gamma    103.1349880432183

_space_group_name_H-M_alt    "P 1"
_space_group_IT_number       1

loop_
  _space_group_symop_operation_xyz
  'x, y, z'

loop_
  _atom_site_type_symbol
  _atom_site_label
  _atom_site_symmetry_multiplicity
  _atom_site_fract_x
  _atom_site_fract_y
  _atom_site_fract_z
  _atom_site_occupancy
  Sm  Sm1       1.0  0.6003126992350118  0.5978387240383893  0.11645160579922022  1.0000
  Sm  Sm2       1.0  0.8996863645292451  0.4021646600828035  0.616452948023536  1.0000
  Sm  Sm3       1.0  0.39968910208445857  0.40215927398746487  0.8835470682128204  1.0000
  Sm  Sm4       1.0  0.10030847692728173  0.5978395814637167  0.3835492112080061  1.0000
  H   H1        1.0  0.508531415892783  0.492659147530773  0.31923239645757934  1.0000
  H   H2        1.0  0.9914663201704528  0.5073443680596341  0.8192327589699107  1.0000
  H   H3        1.0  0.4914643769282278  0.5073440544762347  0.6807676716407587  1.0000
  H   H4        1.0  0.008533227348131322  0.4926588148652797  0.18076521800603026  1.0000
  H   H5        1.0  0.7040844434590952  0.48640670578218687  0.30275689550950363  1.0000
  H   H6        1.0  0.7959110686000416  0.5135944893745332  0.8027561865632934  1.0000
  H   H7        1.0  0.2959126517983179  0.5135923508652667  0.6972459607581458  1.0000
  H   H8        1.0  0.20408687635946882  0.4864118057861971  0.1972445785941588  1.0000
  H   H9        1.0  0.3188333289905784  0.24334057502870374  0.3006305302573297  1.0000
  H   H10       1.0  0.18116803509494867  0.7566548715545948  0.8006312371530344  1.0000
  H   H11       1.0  0.6811690727395147  0.7566594893602953  0.6993716289838476  1.0000
  H   H12       1.0  0.8188375718241259  0.24333896841235256  0.19937161912401546  1.0000
  H   H13       1.0  0.1533564812511798  0.9970709025848448  0.36709117729191126  1.0000
  H   H14       1.0  0.34665289084691137  0.002930735017301299  0.8670906692217173  1.0000
  H   H15       1.0  0.8466412651850846  0.0029260813552909  0.632909587838782  1.0000
  H   H16       1.0  0.6533542169767157  0.9970682707721248  0.13291009594114914  1.0000
  H   H17       1.0  0.9722112126931036  0.2919983160941015  0.009103486320619003  1.0000
  H   H18       1.0  0.5277866784524716  0.7080033646597528  0.5090981720613003  1.0000
  H   H19       1.0  0.02778623358900493  0.7079976347002698  0.9909000669836064  1.0000
  H   H20       1.0  0.4722115665746216  0.29200396358614  0.4908921374350613  1.0000
  H   H21       1.0  0.8147027439337436  0.27614679577463613  0.9175294956585847  1.0000
  H   H22       1.0  0.6852985142414951  0.7238541283000614  0.41752794959512585  1.0000
  H   H23       1.0  0.18529560288165212  0.7238522545066174  0.08247196652394712  1.0000
  H   H24       1.0  0.3147076421546942  0.27614591698480945  0.5824693303463564  1.0000
  H   H25       1.0  0.7672309289712304  0.17550442895078075  0.019648162035558407  1.0000
  H   H26       1.0  0.7327668493197311  0.8245005243828276  0.5196467546240201  1.0000
  H   H27       1.0  0.23276426350211918  0.8244967067371503  0.9803539971882318  1.0000
  H   H28       1.0  0.267231746771408  0.1755036980375237  0.48034773713052914  1.0000
  C   C1        1.0  0.2823858883545256  0.29460788148956135  0.10630855495244161  1.0000
  C   C2        1.0  0.21761133688311665  0.7053896654060948  0.6063043002170262  1.0000
  C   C3        1.0  0.7176127586150258  0.7053922019374567  0.8936901190565509  1.0000
  C   C4        1.0  0.7823892127839257  0.29460833891984345  0.3936874033482596  1.0000
  C   C5        1.0  0.20875878298169684  0.1749537970517849  0.16585720345864274  1.0000
  C   C6        1.0  0.29124734725155577  0.8250405140347538  0.6658533418581529  1.0000
  C   C7        1.0  0.7912539823235675  0.8250431106150841  0.8341421676256859  1.0000
  C   C8        1.0  0.7087520017752595  0.17495335769160644  0.3341474232683127  1.0000
  C   C9        1.0  0.23617108366794068  0.1615257736025058  0.2606308746541758  1.0000
  C   C10       1.0  0.2638352839671327  0.8384721147230039  0.7606283276094956  1.0000
  C   C11       1.0  0.7638319692488693  0.8384722180846894  0.7393698904943591  1.0000
  C   C12       1.0  0.7361684201363944  0.16152380426237303  0.23937104344641114  1.0000
  C   C13       1.0  0.14883824231224452  0.03208978358315309  0.29546435627688794  1.0000
  C   C14       1.0  0.3511735672185736  0.9679117358376885  0.7954630320421927  1.0000
  C   C15       1.0  0.8511639100476599  0.9679051086006323  0.7045364088603778  1.0000
  C   C16       1.0  0.6488344919852763  0.03208623042323921  0.20453703607611834  1.0000
  C   C17       1.0  0.05409715699359901  0.9492298856098526  0.22715841683731955  1.0000
  C   C18       1.0  0.44592121986469374  0.050772582225867814  0.7271559516147479  1.0000
  C   C19       1.0  0.9459077986757906  0.05076602701483069  0.7728402571777836  1.0000
  C   C20       1.0  0.5540883402358503  0.9492305498520393  0.2728413283450593  1.0000
  C   C21       1.0  0.9436770272297537  0.8091330643930376  0.23849308623665882  1.0000
  C   C22       1.0  0.5563143271897175  0.1908836837160734  0.7384947812636613  1.0000
  C   C23       1.0  0.056327826918909786  0.19087112638360537  0.7615181345992711  1.0000
  C   C24       1.0  0.4436723537085498  0.8091226687129731  0.26151504543828713  1.0000
  C   C25       1.0  0.757185382319477  0.3848934395410594  0.03679252804579391  1.0000
  C   C26       1.0  0.7428134343439581  0.6151097121331403  0.5367927870543385  1.0000
  C   C27       1.0  0.24281326469729692  0.615106643919013  0.9632103282291383  1.0000
  C   C28       1.0  0.2571898170410023  0.3848975907360809  0.463203098810702  1.0000
  C   C29       1.0  0.8352645534422223  0.27710458340447275  0.9930745232539735  1.0000
  C   C30       1.0  0.6647328039948802  0.7228954939595127  0.4930714613375145  1.0000
  C   C31       1.0  0.16473349322689762  0.7228934337365231  0.0069304241464110015  1.0000
  C   C32       1.0  0.3352639401670033  0.2771066684914487  0.5069244244946489  1.0000
  S   S1        1.0  0.0752634061745923  0.029203737505604004  0.12013030792341083  1.0000
  S   S2        1.0  0.4247434926089042  0.970796049760267  0.6201294162766047  1.0000
  S   S3        1.0  0.9247418496725642  0.9707932082813784  0.879867669051123  1.0000
  S   S4        1.0  0.5752539536023705  0.029199900984522704  0.37986786362870373  1.0000
  O   O1        1.0  0.3570397171864457  0.4064942649827756  0.14814010501048364  1.0000
  O   O2        1.0  0.1429625585363112  0.5935008183418873  0.6481459507408049  1.0000
  O   O3        1.0  0.6429704941795223  0.593506794448416  0.851862751299919  1.0000
  O   O4        1.0  0.8570349386320828  0.40649099346465783  0.3518624818621774  1.0000
  O   O5        1.0  0.2654823494383222  0.2800986829301664  0.0185150367194282  1.0000
  O   O6        1.0  0.2345184999683312  0.7198995170689882  0.5185144445442307  1.0000
  O   O7        1.0  0.7345179001532715  0.71989828830511  0.9814864254626345  1.0000
  O   O8        1.0  0.7654792465072761  0.2800974668987024  0.48148980580807443  1.0000
  O   O9        1.0  0.9543777492139895  0.7473382329275466  0.315717786139146  1.0000
  O   O10       1.0  0.5456187066720801  0.2526610943848694  0.815712100917395  1.0000
  O   O11       1.0  0.0456129864494272  0.25266913350456116  0.6842794937793073  1.0000
  O   O12       1.0  0.4543781391128335  0.747332789985755  0.18428029967014234  1.0000
  O   O13       1.0  0.8458137822638394  0.75911475442377  0.17140284948285975  1.0000
  O   O14       1.0  0.6542008899463668  0.2408914947001719  0.6713921360562837  1.0000
  O   O15       1.0  0.1541817611161562  0.2408832753284358  0.8285895511126643  1.0000
  O   O16       1.0  0.34580987075504765  0.7591157699497657  0.3285925971207322  1.0000
  O   O17       1.0  0.8250694191750937  0.45661560121110517  0.10682217696763273  1.0000
  O   O18       1.0  0.6749272241639303  0.5433886765569298  0.6068223451524092  1.0000
  O   O19       1.0  0.17493293172380223  0.5433886022042955  0.8931799822850481  1.0000
  O   O20       1.0  0.32506135943182113  0.4566155967710373  0.3931805111058325  1.0000
  O   O21       1.0  0.6148190998293117  0.4050569111396455  0.004242303199191601  1.0000
  O   O22       1.0  0.8851783814190737  0.5949436596448193  0.5042425573109953  1.0000
  O   O23       1.0  0.3851810989232121  0.5949441991165116  0.9957584619500539  1.0000
  O   O24       1.0  0.11481090421820278  0.40505440197146914  0.49576099597607753  1.0000
  O   O25       1.0  0.609742826750697  0.5263663027187989  0.27860764044817904  1.0000
  O   O26       1.0  0.8902543429314422  0.47363346480516105  0.7786065434163236  1.0000
  O   O27       1.0  0.3902548688543704  0.4736348202477387  0.721393124694018  1.0000
  O   O28       1.0  0.1097427014475514  0.5263697308356399  0.2213921305968896  1.0000
