data_image0
_chemical_formula_structural       Cd4H40C40S4N8O20
_chemical_formula_sum              "Cd4 H40 C40 S4 N8 O20"
_cell_length_a       7.043429512088002
_cell_length_b       11.624756976
_cell_length_c       14.9717
_cell_angle_alpha    90.0
_cell_angle_beta     97.33842705060884
_cell_angle_gamma    90.0

_space_group_name_H-M_alt    "P 1"
_space_group_IT_number       1

loop_
  _space_group_symop_operation_xyz
  'x, y, z'

loop_
  _atom_site_type_symbol
  _atom_site_label
  _atom_site_symmetry_multiplicity
  _atom_site_fract_x
  _atom_site_fract_y
  _atom_site_fract_z
  _atom_site_occupancy
  Cd  Cd1       1.0  0.346384365151188  0.7402571957216963  0.6363657281681084  1.0000
  Cd  Cd2       1.0  0.15361729673507088  0.2402544849553507  0.3636369098172878  1.0000
  Cd  Cd3       1.0  0.653616095644871  0.2597430644127741  0.3636367040578889  1.0000
  Cd  Cd4       1.0  0.8463845955492175  0.7597431944800093  0.6363622687933486  1.0000
  H   H1        1.0  0.9398049491152136  0.3976040109520156  0.5288371501767486  1.0000
  H   H2        1.0  0.5601971735671114  0.8976050012522876  0.4711612407664276  1.0000
  H   H3        1.0  0.0601983746573111  0.6023928082503076  0.47116077859899974  1.0000
  H   H4        1.0  0.4398018557407184  0.1023952588821828  0.5288370978798866  1.0000
  H   H5        1.0  0.2014189832956461  0.1399306672267073  0.7796127224587579  1.0000
  H   H6        1.0  0.2985783841259249  0.6399282165948321  0.22038698576308488  1.0000
  H   H7        1.0  0.7985800460121837  0.8600704531407999  0.2203876199680153  1.0000
  H   H8        1.0  0.70141635071721  0.3600711833066015  0.7796117627537882  1.0000
  H   H9        1.0  0.0672427282513155  0.05569578799253351  0.6317315551291854  1.0000
  H   H10       1.0  0.4327517761937827  0.5556959180597687  0.3682693169087941  1.0000
  H   H11       1.0  0.9327577325447436  0.9443018914428265  0.3682688733163388  1.0000
  H   H12       1.0  0.5672386641846501  0.44430434207470176  0.6317311773322771  1.0000
  H   H13       1.0  0.4933323582092726  0.5450806423809027  0.786976723822754  1.0000
  H   H14       1.0  0.0066650092122913  0.0450813725467114  0.21302632403320126  1.0000
  H   H15       1.0  0.5066652396103208  0.4549187575205238  0.21302553636573404  1.0000
  H   H16       1.0  0.9933354515837749  0.9549197478207958  0.7869727685586839  1.0000
  H   H17       1.0  0.5899621083933866  0.4400410271424136  0.9060142101824622  1.0000
  H   H18       1.0  0.9100414457771677  0.9400420174426856  0.0939896101940434  1.0000
  H   H19       1.0  0.4100383524026725  0.5599592329920569  0.0939888899703547  1.0000
  H   H20       1.0  0.08995901501889139  0.0599591029248217  0.9060108182514881  1.0000
  H   H21       1.0  0.7177553574073059  0.5110868134504756  0.001307995339445318  1.0000
  H   H22       1.0  0.7822481967632555  0.0110858231502036  0.9986938212565875  1.0000
  H   H23       1.0  0.2822451033887603  0.4889143069170316  0.9986931010329059  1.0000
  H   H24       1.0  0.2177522640328036  0.9889144369842668  0.0013052713352977  1.0000
  H   H25       1.0  0.8459279508029312  0.4379033480450119  0.9227198084724861  1.0000
  H   H26       1.0  0.6540756033676304  0.9379051985783206  0.07728334397719289  1.0000
  H   H27       1.0  0.1540725099931279  0.562095191623385  0.07728262375350427  1.0000
  H   H28       1.0  0.3459248574284359  0.06209678202222339  0.9227177523951582  1.0000
  H   H29       1.0  0.0083770691388168  0.6514484574288133  0.8885020726112032  1.0000
  H   H30       1.0  0.4916288872121441  0.1514526285267621  0.11149815172316829  1.0000
  H   H31       1.0  0.9916248231454787  0.3485483617735099  0.1114977739262599  1.0000
  H   H32       1.0  0.5083758680486099  0.8485502123068187  0.8885011989249847  1.0000
  H   H33       1.0  0.8811039111494949  0.6882991202757367  0.9813348130331931  1.0000
  H   H34       1.0  0.6189010745092958  0.1883015709076119  0.01866508580112481  1.0000
  H   H35       1.0  0.1188979811348005  0.3116985591596233  0.0186643655774432  1.0000
  H   H36       1.0  0.3811008177749997  0.811701269925969  0.9813347607363311  1.0000
  H   H37       1.0  0.8315257476919271  0.7621269002260505  0.8757801136855221  1.0000
  H   H38       1.0  0.6684792379668707  0.2621276303918521  0.1242197851488029  1.0000
  H   H39       1.0  0.1684747131041391  0.23787249967538318  0.1242196468331898  1.0000
  H   H40       1.0  0.3315255172938905  0.737874350208692  0.875779565499343  1.0000
  C   C1        1.0  0.9951563046159962  0.2210420403028621  0.5703566288654969  1.0000
  C   C2        1.0  0.5048386606251682  0.7210421703700973  0.4296426678375482  1.0000
  C   C3        1.0  0.0048427246918337  0.778954778899454  0.4296423777076299  1.0000
  C   C4        1.0  0.4951532112415009  0.2789580897643731  0.5703565765686347  1.0000
  C   C5        1.0  0.9961383055437523  0.3408286304978176  0.5839164425824919  1.0000
  C   C6        1.0  0.5038638171385728  0.8408287605650528  0.416082616287504  1.0000
  C   C7        1.0  0.0038635867405432  0.6591681887045056  0.4160827360281515  1.0000
  C   C8        1.0  0.4961366436574863  0.1591706393363808  0.5839171442312008  1.0000
  C   C9        1.0  0.0690793276541015  0.3887238253091568  0.6665507344924038  1.0000
  C   C10       1.0  0.43092376572039376  0.8887222349103183  0.3334486498776315  1.0000
  C   C11       1.0  0.930918270165499  0.6112755745922769  0.3334481860619718  1.0000
  C   C12       1.0  0.5690809895403675  0.11127630475807848  0.6665507007705145  1.0000
  C   C13       1.0  0.1414811394967188  0.3140048439323166  0.7367095490849421  1.0000
  C   C14       1.0  0.3585162279248522  0.8140041137665149  0.2632888232832613  1.0000
  C   C15       1.0  0.8585164583228817  0.685994555969117  0.2632893714694333  1.0000
  C   C16       1.0  0.6414813698947484  0.18599700660099217  0.7367094293442945  1.0000
  C   C17       1.0  0.141250669891221  0.19452707739771571  0.7242956386162972  1.0000
  C   C18       1.0  0.3587495605068085  0.6945254869988772  0.2757062454235211  1.0000
  C   C19       1.0  0.8587454964401431  0.8054714622706811  0.275705199699793  1.0000
  C   C20       1.0  0.6412494688010213  0.3054739129025563  0.7242947649300787  1.0000
  C   C21       1.0  0.0672169614631244  0.1482869709499184  0.6423426960653842  1.0000
  C   C22       1.0  0.4327847004231415  0.6482862407841168  0.35765927399319236  1.0000
  C   C23       1.0  0.9327849308211711  0.8517115687184784  0.3576578183989056  1.0000
  C   C24       1.0  0.5672143288846883  0.3517131591173168  0.6423417363604075  1.0000
  C   C25       1.0  0.0788105846612197  0.5185441736498291  0.672417455289242  1.0000
  C   C26       1.0  0.4211896457368098  0.0185431833495571  0.3275817570432906  1.0000
  C   C27       1.0  0.9211870131583738  0.4814543660185677  0.3275814652651334  1.0000
  C   C28       1.0  0.5788151095239513  0.9814553563188398  0.6724182615316822  1.0000
  C   C29       1.0  0.6020395746141958  0.612600333469544  0.8028913560610391  1.0000
  C   C30       1.0  0.8979625480681293  0.1126010636353456  0.1971123782967084  1.0000
  C   C31       1.0  0.397959454693634  0.38739734596581604  0.19711099014619995  1.0000
  C   C32       1.0  0.1020422071926319  0.8874017771982351  0.8028896440587303  1.0000
  C   C33       1.0  0.7184696700355104  0.4900231473019687  0.9298794091162321  1.0000
  C   C34       1.0  0.7815324526468146  0.9900215569031232  0.07012298938787612  1.0000
  C   C35       1.0  0.2815293592723194  0.5099779730655385  0.0701222691641874  1.0000
  C   C36       1.0  0.2184680081492445  0.0099787032313472  0.9298767711308357  1.0000
  C   C37       1.0  0.8704822684615294  0.6794843123437033  0.9079359455315696  1.0000
  C   C38       1.0  0.6295198542208027  0.1794876232086153  0.09206311333842619  1.0000
  C   C39       1.0  0.1295196238227661  0.3205142273246935  0.0920632330790667  1.0000
  C   C40       1.0  0.3704791750870271  0.8205169380910391  0.907935225307888  1.0000
  S   S1        1.0  0.9180620743459968  0.1534294440462105  0.4678887536858055  1.0000
  S   S2        1.0  0.5819357538716262  0.6534295741134457  0.5321120509083883  1.0000
  S   S3        1.0  0.0819383864500622  0.8465682353891495  0.5321110068328991  1.0000
  S   S4        1.0  0.418060412459738  0.3465706860210247  0.467888787407702  1.0000
  N   N1        1.0  0.2171152517691723  0.3585141615092979  0.8236271792078182  1.0000
  N   N2        1.0  0.2828835471406208  0.8585134313434963  0.1763726150327827  1.0000
  N   N3        1.0  0.7828809145621918  0.6414860986251725  0.1763729911814522  1.0000
  N   N4        1.0  0.7171183451436747  0.1414894094900845  0.8236258956510338  1.0000
  N   N5        1.0  0.7219868366236994  0.5958739622945188  0.8779189931330151  1.0000
  N   N6        1.0  0.7780152860586256  0.09587383222728361  0.12208273744426627  1.0000
  N   N7        1.0  0.2780107611959011  0.4041254376069147  0.1220805953481872  1.0000
  N   N8        1.0  0.2219894692021285  0.9041272881402236  0.877917949057526  1.0000
  O   O1        1.0  0.1818848948697607  0.46095587297548946  0.8418492113106024  1.0000
  O   O2        1.0  0.3181124725518032  0.9609551428096879  0.15815049691124017  1.0000
  O   O3        1.0  0.8181098399733742  0.539044387158981  0.1581508730599097  1.0000
  O   O4        1.0  0.6818865567560266  0.039047698023893  0.8418485096618864  1.0000
  O   O5        1.0  0.3158550156085553  0.2939235639122728  0.8782269788950003  1.0000
  O   O6        1.0  0.1841452147894813  0.7939219735134344  0.12177290136435198  1.0000
  O   O7        1.0  0.6841440136992745  0.7060775564552344  0.1217726956049532  1.0000
  O   O8        1.0  0.8158566774948142  0.20607914685407278  0.8782262772462913  1.0000
  O   O9        1.0  0.9222176846860535  0.5707327915497586  0.6749466442243628  1.0000
  O   O10       1.0  0.577781575019813  0.0707318012494866  0.3250529105349429  1.0000
  O   O11       1.0  0.0777784816453106  0.42926660835167496  0.32505219031126126  1.0000
  O   O12       1.0  0.4222217487527189  0.929267598651947  0.6749476899480911  1.0000
  O   O13       1.0  0.243162611654661  0.5609717272768222  0.6671715772123932  1.0000
  O   O14       1.0  0.2568390502315978  0.0609698767435134  0.3328310607730031  1.0000
  O   O15       1.0  0.7568349861649324  0.4390276726246114  0.3328280112688091  1.0000
  O   O16       1.0  0.7431671365173926  0.9390286629248835  0.6671697117475403  1.0000
  O   O17       1.0  0.6042354775634352  0.7003810932829921  0.7532046509616706  1.0000
  O   O18       1.0  0.8957623506541879  0.2003801029827201  0.2467968215593501  1.0000
  O   O19       1.0  0.3957635517443947  0.2996191668514783  0.2467956914651097  1.0000
  O   O20       1.0  0.1042381101418712  0.7996192969187135  0.7532016031057152  1.0000
