data_image0
_chemical_formula_structural       Zn4H48C56N4O20
_chemical_formula_sum              "Zn4 H48 C56 N4 O20"
_cell_length_a       7.505377608740341
_cell_length_b       11.012770758283523
_cell_length_c       16.554948362032864
_cell_angle_alpha    90.0000218870522
_cell_angle_beta     89.99977024505444
_cell_angle_gamma    102.47485066713155

_space_group_name_H-M_alt    "P 1"
_space_group_IT_number       1

loop_
  _space_group_symop_operation_xyz
  'x, y, z'

loop_
  _atom_site_type_symbol
  _atom_site_label
  _atom_site_symmetry_multiplicity
  _atom_site_fract_x
  _atom_site_fract_y
  _atom_site_fract_z
  _atom_site_occupancy
  Zn  Zn1       1.0  0.40846385622813847  0.9787065834787754  0.9224967466197782  1.0000
  Zn  Zn2       1.0  0.09153970954731253  0.5212935578095427  0.4224948120102425  1.0000
  Zn  Zn3       1.0  0.5915393640070192  0.021285077755393896  0.0775049845201252  1.0000
  Zn  Zn4       1.0  0.9084600402420195  0.47871207939312643  0.5775014826937976  1.0000
  H   H1        1.0  0.1551319613523461  0.8620958565351841  0.2305697077407558  1.0000
  H   H2        1.0  0.3448592868802082  0.6379063457416692  0.7305680410885884  1.0000
  H   H3        1.0  0.8448665842958861  0.13790606073352052  0.7694344396008788  1.0000
  H   H4        1.0  0.6551326039111276  0.3620955933846801  0.269428857671187  1.0000
  H   H5        1.0  0.9181817889628974  0.6972257781018953  0.29614333247833  1.0000
  H   H6        1.0  0.5818128111579312  0.8027740184264828  0.7961428007172842  1.0000
  H   H7        1.0  0.08181971966756413  0.302777060407621  0.7038608148607037  1.0000
  H   H8        1.0  0.41818096536548677  0.19722139770661334  0.2038577223338507  1.0000
  H   H9        1.0  0.6700970499133803  0.5704937364062131  0.21335862833776528  1.0000
  H   H10       1.0  0.8299033154796903  0.9295051786243108  0.7133600902000267  1.0000
  H   H11       1.0  0.3299093074503645  0.4295035003525384  0.7866449149470186  1.0000
  H   H12       1.0  0.1700956580697124  0.0704939443255626  0.2866434530918269  1.0000
  H   H13       1.0  0.8958361904784056  0.7743809126533138  0.001059990911827  1.0000
  H   H14       1.0  0.6041666808298772  0.7256200315201653  0.5010587925293137  1.0000
  H   H15       1.0  0.10416707702840002  0.2256191271661763  0.9989441564251892  1.0000
  H   H16       1.0  0.3958357309016662  0.27438559693939624  0.4989405224172713  1.0000
  H   H17       1.0  0.6954168273468185  0.4180311165994722  0.09606616125860509  1.0000
  H   H18       1.0  0.8045856744469335  0.0819678769805421  0.5960651574811493  1.0000
  H   H19       1.0  0.3045986727238629  0.5819614352795809  0.9039337577231024  1.0000
  H   H20       1.0  0.1954053605447612  0.9180396507837116  0.4039323453291956  1.0000
  H   H21       1.0  0.477251901509483  0.17749817331469592  0.8088828081185113  1.0000
  H   H22       1.0  0.022751185300094796  0.3224899494445523  0.3088810837279112  1.0000
  H   H23       1.0  0.5227499877477939  0.8224934922904271  0.1911189230226213  1.0000
  H   H24       1.0  0.9772595929201346  0.6775044798844405  0.6911170231114097  1.0000
  H   H25       1.0  0.39349603023894286  0.2763631599340285  0.6341212545656345  1.0000
  H   H26       1.0  0.10649433137633219  0.22363445874108118  0.13411330784681036  1.0000
  H   H27       1.0  0.6064903624457616  0.723634142388022  0.3658847049335704  1.0000
  H   H28       1.0  0.8935022812871198  0.7763656029372541  0.86588057066335  1.0000
  H   H29       1.0  0.5940113420030999  0.22059024362539498  0.6103813321693536  1.0000
  H   H30       1.0  0.9059829186931624  0.2794124890761723  0.1103764727285821  1.0000
  H   H31       1.0  0.4059808497876176  0.7794126254812495  0.38962160708027227  1.0000
  H   H32       1.0  0.09402069715781641  0.7205968593154283  0.8896198219724027  1.0000
  H   H33       1.0  0.5756470514659497  0.29267976127618306  0.7051475864145544  1.0000
  H   H34       1.0  0.9243476430952955  0.20731451295208098  0.2051396529077323  1.0000
  H   H35       1.0  0.4243459961081584  0.7073175191911149  0.29485837307851165  1.0000
  H   H36       1.0  0.07565356455744876  0.7926873955790581  0.7948536215494498  1.0000
  H   H37       1.0  0.43045368912942905  0.9986578350507145  0.5930139738075866  1.0000
  H   H38       1.0  0.06954810950449539  0.5013444462435146  0.0930156985378048  1.0000
  H   H39       1.0  0.5695435255652941  0.0013440865911036  0.4069847370942767  1.0000
  H   H40       1.0  0.9304676119950275  0.49866113850558236  0.9069860325924991  1.0000
  H   H41       1.0  0.2124973123254676  0.03443862176185769  0.6104215255324519  1.0000
  H   H42       1.0  0.2875057157638209  0.46556456072398317  0.1104229766378566  1.0000
  H   H43       1.0  0.7874996013346663  0.9655623698965319  0.38957899751656555  1.0000
  H   H44       1.0  0.7125100057411162  0.5344410240255969  0.8895775463944418  1.0000
  H   H45       1.0  0.2906957092273926  0.925309365336126  0.6742405615680908  1.0000
  H   H46       1.0  0.20929895982266086  0.5746854244801156  0.1742456730861903  1.0000
  H   H47       1.0  0.7092993982874489  0.0746860464272174  0.3257569412368112  1.0000
  H   H48       1.0  0.7907139255557852  0.42531551472542617  0.825758474242086  1.0000
  C   C1        1.0  0.19039975344917084  0.9173812728911772  0.0704030703148888  1.0000
  C   C2        1.0  0.3096009169998979  0.582621030794229  0.5703996412686436  1.0000
  C   C3        1.0  0.8096014541521089  0.0826206356353865  0.9296016810732866  1.0000
  C   C4        1.0  0.6903985317656733  0.41738367642597757  0.42959604938654644  1.0000
  C   C5        1.0  0.03855022513494085  0.8277563257965002  0.1116506839236848  1.0000
  C   C6        1.0  0.4614471124248355  0.672245023778089  0.6116488117140761  1.0000
  C   C7        1.0  0.9614539454512823  0.17224650397111674  0.8883534634128836  1.0000
  C   C8        1.0  0.5385471392903726  0.327755976623166  0.3883492951413956  1.0000
  C   C9        1.0  0.044072497882666546  0.806952360195105  0.1952244793705589  1.0000
  C   C10       1.0  0.45592069932380497  0.6930507958594773  0.6952226231071561  1.0000
  C   C11       1.0  0.9559319737273244  0.19305139955497447  0.8047802720148666  1.0000
  C   C12       1.0  0.5440714924912909  0.30695207324933454  0.3047748797014691  1.0000
  C   C13       1.0  0.9116160410365526  0.7148268975467359  0.2315529854679141  1.0000
  C   C14       1.0  0.5883791383172509  0.7851729504523843  0.731552436725444  1.0000
  C   C15       1.0  0.0883901894552039  0.28517406351380004  0.768450557817502  1.0000
  C   C16       1.0  0.4116142103131182  0.21482526000026075  0.2684468782284739  1.0000
  C   C17       1.0  0.7729910014310448  0.6428898365070239  0.1847048750956475  1.0000
  C   C18       1.0  0.7270088920135225  0.8571109656948366  0.6847028824387067  1.0000
  C   C19       1.0  0.22701638588681314  0.35710646589831185  0.815298064139057  1.0000
  C   C20       1.0  0.27298535969897136  0.142890034706177  0.3152958284657643  1.0000
  C   C21       1.0  0.7637462993332492  0.6642338872399591  0.101367266315691  1.0000
  C   C22       1.0  0.7362530104852996  0.8357669857426728  0.6013658547501777  1.0000
  C   C23       1.0  0.23626211794415036  0.3357614808124366  0.8986338607709355  1.0000
  C   C24       1.0  0.26374201744003056  0.1642405289087279  0.3986316480564795  1.0000
  C   C25       1.0  0.8977115650226606  0.7570298012011275  0.06570893503584327  1.0000
  C   C26       1.0  0.6022880645687394  0.7429711001965772  0.5657083489649679  1.0000
  C   C27       1.0  0.10229569542320863  0.24297022550599226  0.9342940041994936  1.0000
  C   C28       1.0  0.3977113841805746  0.2570336070221799  0.4342909659842178  1.0000
  C   C29       1.0  0.6234545066189909  0.5841097542198526  0.050467195657475386  1.0000
  C   C30       1.0  0.8765511856182826  0.9158930018050028  0.5504673596115026  1.0000
  C   C31       1.0  0.37656473264947016  0.4158902331506413  0.9495309111748043  1.0000
  C   C32       1.0  0.1234407051649171  0.0841089373206216  0.44953135129527055  1.0000
  C   C33       1.0  0.5103488378482838  0.6288285528089189  0.9946738151898202  1.0000
  C   C34       1.0  0.9896503357642531  0.8711701336778859  0.4946712429986276  1.0000
  C   C35       1.0  0.4896693241835735  0.37116399032871067  0.0053248956914302  1.0000
  C   C36       1.0  0.010338037293344404  0.1288374028302002  0.5053214274221672  1.0000
  C   C37       1.0  0.6085489444518686  0.45539420250577217  0.0543820331681246  1.0000
  C   C38       1.0  0.8914548342394256  0.044607614239914994  0.5543802547638279  1.0000
  C   C39       1.0  0.39146492362800706  0.544597423762724  0.9456148655699579  1.0000
  C   C40       1.0  0.10853946477180901  0.9554017647488208  0.445614831847756  1.0000
  C   C41       1.0  0.49937264884734855  0.7631832761572925  0.9885451627462274  1.0000
  C   C42       1.0  0.0006325586785252098  0.7368195980757052  0.4885428514064714  1.0000
  C   C43       1.0  0.500639159313458  0.2368102188170766  0.011455360288010799  1.0000
  C   C44       1.0  0.9993642754083468  0.26319349647219065  0.5114540473502913  1.0000
  C   C45       1.0  0.4069730243404309  0.09661997357613934  0.7736372066606306  1.0000
  C   C46       1.0  0.093027415570802  0.4033672560295685  0.273633562861086  1.0000
  C   C47       1.0  0.5930288649195531  0.9033716920292247  0.22636392043150266  1.0000
  C   C48       1.0  0.906987529737549  0.5966318144710671  0.7263645439750306  1.0000
  C   C49       1.0  0.4992243260956855  0.231562988631957  0.6589131339522466  1.0000
  C   C50       1.0  0.0007717391357146819  0.26843645276684913  0.1589096229967311  1.0000
  C   C51       1.0  0.5007682935853737  0.7684370861548899  0.3410916174436025  1.0000
  C   C52       1.0  0.9992347924150097  0.7315654382792829  0.8410866717005375  1.0000
  C   C53       1.0  0.33211115004278474  0.011407367425654501  0.6396495309779624  1.0000
  C   C54       1.0  0.16788744884394194  0.48859115059700997  0.139651813152561  1.0000
  C   C55       1.0  0.6678829275071081  0.9885889786901457  0.3603509920730232  1.0000
  C   C56       1.0  0.8321257375772291  0.5114107185926854  0.8603487098815633  1.0000
  N   N1        1.0  0.41684106706303237  0.1111256472613249  0.6939734053234758  1.0000
  N   N2        1.0  0.08315584056548178  0.3888691075420638  0.19397279596321226  1.0000
  N   N3        1.0  0.5831570034204958  0.8888706857416225  0.30602711772382196  1.0000
  N   N4        1.0  0.9168564427952292  0.6111299717011961  0.8060234987283648  1.0000
  O   O1        1.0  0.18479386246169588  0.9231713233623112  0.9933114216285118  1.0000
  O   O2        1.0  0.31520924241862514  0.5768334157798805  0.4933090897924118  1.0000
  O   O3        1.0  0.8152091512984186  0.07683616506050579  0.006693329758768099  1.0000
  O   O4        1.0  0.684791664191394  0.42316756276710527  0.5066878089589152  1.0000
  O   O5        1.0  0.31795483680003395  0.9773386424837723  0.1147939179088766  1.0000
  O   O6        1.0  0.18204762233762045  0.5226580328185194  0.6147901035175563  1.0000
  O   O7        1.0  0.682061820080506  0.022649250738631103  0.8852090213161147  1.0000
  O   O8        1.0  0.8179423827134971  0.47735042930035837  0.3852049830978643  1.0000
  O   O9        1.0  0.5487692468825571  0.8323015350179759  0.0494887394933485  1.0000
  O   O10       1.0  0.9512339190573018  0.6676975062277535  0.5494862808220587  1.0000
  O   O11       1.0  0.45124359123778407  0.16769102560346033  0.9505099713928118  1.0000
  O   O12       1.0  0.0487602057831964  0.33230721847504446  0.45051243008304437  1.0000
  O   O13       1.0  0.43439028400693774  0.7962804738950243  0.9230959140805695  1.0000
  O   O14       1.0  0.06561151752392651  0.7037224656062975  0.423092869669091  1.0000
  O   O15       1.0  0.5656076123139899  0.20371120482271013  0.0769064211132502  1.0000
  O   O16       1.0  0.9343854434186911  0.29628690463837165  0.5769076533810348  1.0000
  O   O17       1.0  0.3239855803218318  0.9981155184344742  0.8082343143673967  1.0000
  O   O18       1.0  0.1760176318650366  0.5018763396910373  0.3082346347510522  1.0000
  O   O19       1.0  0.6760216328496753  0.0018761296870834995  0.1917668127198269  1.0000
  O   O20       1.0  0.8239922432757752  0.49811529968982876  0.6917634720887164  1.0000
