data_image0
_chemical_formula_structural       Zn4H6C60I9O13F15
_chemical_formula_sum              "Zn4 H6 C60 I9 O13 F15"
_cell_length_a       17.834073880571164
_cell_length_b       17.788886635145982
_cell_length_c       17.80861767520073
_cell_angle_alpha    69.55107892219989
_cell_angle_beta     64.6908662776908
_cell_angle_gamma    87.46098987191749

_space_group_name_H-M_alt    "P 1"
_space_group_IT_number       1

loop_
  _space_group_symop_operation_xyz
  'x, y, z'

loop_
  _atom_site_type_symbol
  _atom_site_label
  _atom_site_symmetry_multiplicity
  _atom_site_fract_x
  _atom_site_fract_y
  _atom_site_fract_z
  _atom_site_occupancy
  Zn  Zn1       1.0  0.5633680929459999  0.4301955631975433  0.4385958564114534  1.0000
  Zn  Zn2       1.0  0.4700444876056621  0.5884069676408075  0.4233764771126261  1.0000
  Zn  Zn3       1.0  0.5629216163642141  0.5331900550418851  0.5482803229489548  1.0000
  Zn  Zn4       1.0  0.389373008929546  0.431218840656598  0.6069483145957904  1.0000
  H   H1        1.0  0.7585250897833472  0.9281702945329259  0.326876071254347  1.0000
  H   H2        1.0  0.0716379914680942  0.7032127659201707  0.5853626055118185  1.0000
  H   H3        1.0  0.46856080051283294  0.48752707597199685  0.20973960855983614  1.0000
  H   H4        1.0  0.4061680394642906  0.420947099839843  0.1868569112045151  1.0000
  H   H5        1.0  0.6152848820810702  0.5380943682696752  0.8249236062957976  1.0000
  H   H6        1.0  0.6063787556277943  0.1367185664421271  0.41002714131476387  1.0000
  C   C1        1.0  0.2884031323129078  0.5417227344070524  0.5377234653056179  1.0000
  C   C2        1.0  0.5932554420602043  0.0714897867467741  0.43326575670423767  1.0000
  C   C3        1.0  0.6530652888236047  0.0290476070870938  0.3930176319892028  1.0000
  C   C4        1.0  0.7063461205434933  0.4555680058954934  0.46495629708481806  1.0000
  C   C5        1.0  0.6349122648397338  0.9449661658024767  0.41222910474766655  1.0000
  C   C6        1.0  0.5500776249865424  0.908655528821676  0.472515199612303  1.0000
  C   C7        1.0  0.6943857098239616  0.8997240234713217  0.37044350899980577  1.0000
  C   C8        1.0  0.6714989019817068  0.8210470311851595  0.38430673314644537  1.0000
  C   C9        1.0  0.52865170866972  0.83401973132748  0.4704732565510596  1.0000
  C   C10       1.0  0.7967994554756501  0.44820812756181994  0.44086442164227424  1.0000
  C   C11       1.0  0.205244428544674  0.5643039029047757  0.540754395835215  1.0000
  C   C12       1.0  0.32764103199734507  0.17704161448745034  0.5905240813115996  1.0000
  C   C13       1.0  0.9306040018497015  0.4131367222462147  0.35120675286903247  1.0000
  C   C14       1.0  0.8459415421297863  0.41555587217415285  0.3760952204258671  1.0000
  C   C15       1.0  0.8380783157964659  0.4788182421398091  0.4774695377329083  1.0000
  C   C16       1.0  0.5604070277655495  0.5366978091012412  0.27353809678317736  1.0000
  C   C17       1.0  0.9258087039330151  0.48797115182512124  0.44578034049774845  1.0000
  C   C18       1.0  0.9723302728930818  0.4489007752045496  0.3844946255299749  1.0000
  C   C19       1.0  0.9694794683990366  0.5311369780175141  0.47377154954531164  1.0000
  C   C20       1.0  0.05269456774597359  0.5177795052033503  0.46082454422402475  1.0000
  C   C21       1.0  0.0968127073793568  0.4803491646143883  0.3979514355789533  1.0000
  C   C22       1.0  0.05926569772616829  0.449566484930628  0.35982425354875147  1.0000
  C   C23       1.0  0.4720689902222333  0.15659767237435324  0.5449411336344312  1.0000
  C   C24       1.0  0.9384338508161321  0.5969297333208843  0.5019971075150734  1.0000
  C   C25       1.0  0.9797883879098492  0.6391356073506529  0.5275417299941054  1.0000
  C   C26       1.0  0.05612313545014298  0.6155651950078678  0.5315881070039836  1.0000
  C   C27       1.0  0.09124407697044032  0.5515894590431574  0.5006202436734882  1.0000
  C   C28       1.0  0.44250959611099455  0.45279688040350413  0.732771238881064  1.0000
  C   C29       1.0  0.09762205749004946  0.6543804735366763  0.5625771910764997  1.0000
  C   C30       1.0  0.1718416393750601  0.6307019767695651  0.5630083952625001  1.0000
  C   C31       1.0  0.161998703290287  0.5244560526936297  0.5141275295014793  1.0000
  C   C32       1.0  0.42497259095573975  0.43806788007108116  0.8273913768413694  1.0000
  C   C33       1.0  0.5839680000646511  0.5477516969284366  0.17853681020292805  1.0000
  C   C34       1.0  0.4533310225493636  0.0781532769614444  0.5487966938689511  1.0000
  C   C35       1.0  0.35227058691113905  0.35263546722210043  0.9844410434867115  1.0000
  C   C36       1.0  0.3709342830095963  0.36916167429226476  0.896056826786108  1.0000
  C   C37       1.0  0.46366715261792285  0.48702226287531414  0.8506763257768881  1.0000
  C   C38       1.0  0.4575521301710666  0.4633426075912724  0.9383883408293842  1.0000
  C   C39       1.0  0.39335033309465234  0.39880332559533843  0.009513381900859331  1.0000
  C   C40       1.0  0.557564674708189  0.7028108027110067  0.45019243241654977  1.0000
  C   C41       1.0  0.5147987053707938  0.49826536140270855  0.9591432102830596  1.0000
  C   C42       1.0  0.495309480332402  0.4854353661470369  0.048573491836933276  1.0000
  C   C43       1.0  0.4230322109633419  0.4315721655509605  0.1173520231330443  1.0000
  C   C44       1.0  0.37615139020523  0.3868294176808433  0.09980488282887737  1.0000
  C   C45       1.0  0.36715009728155923  0.0431081091929144  0.5947918526049494  1.0000
  C   C46       1.0  0.5955145553887746  0.5371423571516091  0.8920259323799158  1.0000
  C   C47       1.0  0.652236778101475  0.5692762459222678  0.9093439681126156  1.0000
  C   C48       1.0  0.6317476190276776  0.5650696849366383  0.9980028342148799  1.0000
  C   C49       1.0  0.5517948721723086  0.522443011422233  0.06845124977827058  1.0000
  C   C50       1.0  0.6847147303723278  0.5974030990388499  0.023010213337279505  1.0000
  C   C51       1.0  0.6623613445755153  0.5873763037022712  0.11078425174620317  1.0000
  C   C52       1.0  0.42968899952033723  0.29412862657305544  0.5490863394173787  1.0000
  C   C53       1.0  0.5297442179240477  0.5169140096123995  0.15648324970871394  1.0000
  C   C54       1.0  0.4102217800674309  0.20758670016808617  0.5627943519820422  1.0000
  C   C55       1.0  0.5866422269893833  0.7879990896782161  0.4324122967901687  1.0000
  C   C56       1.0  0.5141053102966495  0.03222823168792391  0.5048140340538796  1.0000
  C   C57       1.0  0.3059985944925714  0.09666443731968141  0.6085824823810954  1.0000
  C   C58       1.0  0.492410768280017  0.9491975948094622  0.526655868861191  1.0000
  C   C59       1.0  0.41483955394585337  0.910227646219525  0.6046591240754112  1.0000
  C   C60       1.0  0.3508227542057368  0.9557188834945335  0.6313120580492609  1.0000
  I   I1        1.0  0.23502037767524084  0.8993283401179327  0.7404656266789901  1.0000
  I   I2        1.0  0.9290896018485953  0.7396508881392166  0.5567562654898666  1.0000
  I   I3        1.0  0.2778674434940028  0.30437568294469497  0.21418544718594754  1.0000
  I   I4        1.0  0.7675850851241819  0.6217718391631593  0.7958238195559204  1.0000
  I   I5        1.0  0.5088133898909178  0.6084369386972242  0.7586084313928158  1.0000
  I   I6        1.0  0.7626004722577517  0.752451351519028  0.3284647485777226  1.0000
  I   I7        1.0  0.7707110858134384  0.09365974656255098  0.2960290468468117  1.0000
  I   I8        1.0  0.5877481725215501  0.19155519345372343  0.538278504156331  1.0000
  I   I9        1.0  0.4109572788744558  0.7910319181827745  0.6901364716202637  1.0000
  O   O1        1.0  0.4933699457233588  0.49476673454947234  0.5054443184069015  1.0000
  O   O2        1.0  0.5278044499839183  0.6913107973314254  0.40133132661132026  1.0000
  O   O3        1.0  0.38819100294777803  0.3176149170235902  0.6133755137082775  1.0000
  O   O4        1.0  0.5655768428583697  0.6503599350253922  0.5155424718980726  1.0000
  O   O5        1.0  0.4862266153230338  0.3360886559538656  0.4721166785881366  1.0000
  O   O6        1.0  0.601668029131467  0.4901255852155515  0.3095536130790251  1.0000
  O   O7        1.0  0.3814986206382116  0.4417730158854099  0.7171579636716887  1.0000
  O   O8        1.0  0.34939556391482546  0.5945707702907587  0.47663779769352743  1.0000
  O   O9        1.0  0.6790687608494822  0.5144645093503257  0.489470479332148  1.0000
  O   O10       1.0  0.2900730391796387  0.47436350167517116  0.5931152851337202  1.0000
  O   O11       1.0  0.6648248604023052  0.4053333725864475  0.45604322947245635  1.0000
  O   O12       1.0  0.5007415792153579  0.573555635038332  0.30937504278715267  1.0000
  O   O13       1.0  0.5192908874492375  0.4726976004568825  0.6765064497193906  1.0000
  F   F1        1.0  0.10809960117251187  0.4213096181227698  0.29596880779109824  1.0000
  F   F2        1.0  0.7163712988072249  0.6188289991188611  0.13027219491530664  1.0000
  F   F3        1.0  0.2951007408969417  0.28803428667963976  0.045248168429054686  1.0000
  F   F4        1.0  0.334812098610918  0.3174090596785036  0.8775115096209021  1.0000
  F   F5        1.0  0.7601120815415428  0.6398917273777656  0.9617567612864804  1.0000
  F   F6        1.0  0.22446066665630582  0.07253778737564431  0.6375000636928548  1.0000
  F   F7        1.0  0.2669603670034064  0.22603719274187736  0.6013371426664451  1.0000
  F   F8        1.0  0.18902205209727896  0.4549504530590411  0.503302463314725  1.0000
  F   F9        1.0  0.21315344845912415  0.6700036305922268  0.5897253769240224  1.0000
  F   F10       1.0  0.9725694878956829  0.3763257583892922  0.29318472802499695  1.0000
  F   F11       1.0  0.8115942246369484  0.3849935438638995  0.3371770972380547  1.0000
  F   F12       1.0  0.7908607499815047  0.4945925525093601  0.5514879752958493  1.0000
  F   F13       1.0  0.18071632911111374  0.48342461639793294  0.363969713815287  1.0000
  F   F14       1.0  0.8702483387733438  0.6254320574738443  0.4925482614046571  1.0000
  F   F15       1.0  0.446703150903673  0.8051503240124446  0.5054937251953787  1.0000
