data_image0
_chemical_formula_structural       Co4H32C52N4O20
_chemical_formula_sum              "Co4 H32 C52 N4 O20"
_cell_length_a       11.335439324699788
_cell_length_b       11.410948524259755
_cell_length_c       13.09084581256759
_cell_angle_alpha    89.999639621416
_cell_angle_beta     110.15653886163996
_cell_angle_gamma    90.00076909741011

_space_group_name_H-M_alt    "P 1"
_space_group_IT_number       1

loop_
  _space_group_symop_operation_xyz
  'x, y, z'

loop_
  _atom_site_type_symbol
  _atom_site_label
  _atom_site_symmetry_multiplicity
  _atom_site_fract_x
  _atom_site_fract_y
  _atom_site_fract_z
  _atom_site_occupancy
  Co  Co1       1.0  2.5510513240003905e-06  0.11511128128336881  0.7499985154495689  1.0000
  Co  Co2       1.0  0.9999964216772026  0.8848901497038498  0.2500014876264345  1.0000
  Co  Co3       1.0  1.0074398773003407e-06  0.999999125059034  0.9999995941081323  1.0000
  Co  Co4       1.0  0.9999983894489263  0.9999997422530169  0.5000003527249675  1.0000
  H   H1        1.0  0.7249662189701522  0.9701298834236027  0.7998795514380389  1.0000
  H   H2        1.0  0.27503183968741496  0.9701333713511886  0.700110993030215  1.0000
  H   H3        1.0  0.27503275247968156  0.0298715475663798  0.2001196873645554  1.0000
  H   H4        1.0  0.7249708945651248  0.029867183300233104  0.2998916560348092  1.0000
  H   H5        1.0  0.5765516578721018  0.8126358070325707  0.6906796634149188  1.0000
  H   H6        1.0  0.4234481279416966  0.8126431156264291  0.8093053745945368  1.0000
  H   H7        1.0  0.4234473110259742  0.18736650031429036  0.309318046840147  1.0000
  H   H8        1.0  0.5765527242504688  0.18735480996598142  0.1906951872050512  1.0000
  H   H9        1.0  0.6669241882384823  0.6464559409592353  0.6133542155952512  1.0000
  H   H10       1.0  0.3330809875685076  0.6464579734963891  0.8866356187243197  1.0000
  H   H11       1.0  0.33307477682914305  0.3535472427472682  0.3866412018388843  1.0000
  H   H12       1.0  0.6669170428314712  0.3535390757344102  0.11336257644803989  1.0000
  H   H13       1.0  0.8991453150863149  0.6464082974282377  0.6466241278014592  1.0000
  H   H14       1.0  0.1008626933802859  0.64640658931161  0.8533749516867529  1.0000
  H   H15       1.0  0.10085459228737648  0.35359576262933956  0.353373097539162  1.0000
  H   H16       1.0  0.8991353370421816  0.353593965324535  0.1466232434827717  1.0000
  H   H17       1.0  0.3811479160134041  0.8947674174563859  0.09997572730939204  1.0000
  H   H18       1.0  0.6188461464641433  0.8947661642232845  0.40002501510257815  1.0000
  H   H19       1.0  0.6188519926164915  0.10523313719306772  0.9000222623074735  1.0000
  H   H20       1.0  0.3811518941878305  0.10523439039071289  0.5999792942542115  1.0000
  H   H21       1.0  0.38869178184531716  0.14744821655793322  0.8599406117495575  1.0000
  H   H22       1.0  0.6113117029098516  0.14744875158046258  0.6400583043983231  1.0000
  H   H23       1.0  0.6113081255058929  0.8525523380942915  0.1400566135938988  1.0000
  H   H24       1.0  0.38868822104745243  0.8525491739817637  0.3599488565015605  1.0000
  H   H25       1.0  0.15650563087695699  0.44467151459224413  0.6796988185999311  1.0000
  H   H26       1.0  0.843498848699653  0.4446712163880592  0.8202995433279482  1.0000
  H   H27       1.0  0.843493343113394  0.5553272873381943  0.3203019487516058  1.0000
  H   H28       1.0  0.1565038804268823  0.5553275855717671  0.179700048644861  1.0000
  H   H29       1.0  0.862146883160932  0.34619381612139216  0.3853817364354414  1.0000
  H   H30       1.0  0.13785141019766908  0.346194337787793  0.1146178950654217  1.0000
  H   H31       1.0  0.13785209210249147  0.6538041094549384  0.6146197951902153  1.0000
  H   H32       1.0  0.8621531971419286  0.6538053405366783  0.8853814913540176  1.0000
  C   C1        1.0  0.7539855598087468  0.8959234120609383  0.7622389348487315  1.0000
  C   C2        1.0  0.2460153097555632  0.8959297437312868  0.7377551398216012  1.0000
  C   C3        1.0  0.24601435138415434  0.10407801893431669  0.23776058331424105  1.0000
  C   C4        1.0  0.7539864834752238  0.10407081091763358  0.26224646560964265  1.0000
  C   C5        1.0  0.6766801341332424  0.807247743668256  0.7040612015965948  1.0000
  C   C6        1.0  0.32332241203575757  0.8072573156419195  0.795930797388351  1.0000
  C   C7        1.0  0.32331883603789885  0.19275368732449744  0.29593727293259775  1.0000
  C   C8        1.0  0.6766784401676558  0.19274236265316347  0.2040697644098231  1.0000
  C   C9        1.0  0.7269180138097937  0.7157518981756393  0.6610529886466381  1.0000
  C   C10       1.0  0.27308994064333086  0.7157543512303877  0.8389434065750051  1.0000
  C   C11       1.0  0.27308189355827744  0.28425128553060114  0.3389442366946938  1.0000
  C   C12       1.0  0.7269090282322634  0.284244450711121  0.16105430368290288  1.0000
  C   C13       1.0  0.8554863258758515  0.7150849124396715  0.679174864208278  1.0000
  C   C14       1.0  0.14451974948693894  0.7150875302008542  0.8208263232844075  1.0000
  C   C15       1.0  0.14451358660135577  0.28491739490415563  0.32082541822738614  1.0000
  C   C16       1.0  0.8554792193942757  0.2849121480919905  0.17917138697278293  1.0000
  C   C17       1.0  0.9316651602096823  0.8052591329343386  0.7376692890185268  1.0000
  C   C18       1.0  0.06834113599624199  0.8052611568295943  0.7623337661825786  1.0000
  C   C19       1.0  0.06833568944759347  0.19474229806895238  0.2623297442314083  1.0000
  C   C20       1.0  0.9316587764697244  0.19473939781155994  0.23766651625450652  1.0000
  C   C21       1.0  0.23376331742718287  0.04579360214383849  0.9503711578739953  1.0000
  C   C22       1.0  0.7662388658448478  0.0457916084057786  0.5496294511308407  1.0000
  C   C23       1.0  0.7662365950500313  0.9542087051999887  0.049629124561675994  1.0000
  C   C24       1.0  0.23375917225536819  0.9542098225650973  0.4503733296784276  1.0000
  C   C25       1.0  0.3722575437826023  0.024656832011380896  0.9784670316376278  1.0000
  C   C26       1.0  0.6277443696321469  0.024655819071405502  0.5215343758039594  1.0000
  C   C27       1.0  0.6277423648529206  0.9753445989894086  0.021530957978519918  1.0000
  C   C28       1.0  0.3722564889647088  0.9753438592098361  0.47847000736125267  1.0000
  C   C29       1.0  0.43453785122073185  0.9412312005099109  0.05746950598828702  1.0000
  C   C30       1.0  0.5654586880576031  0.9412298006482588  0.4425324843168283  1.0000
  C   C31       1.0  0.5654611176661034  0.058769354134270195  0.9425282042681999  1.0000
  C   C32       1.0  0.43454217436407566  0.05876812492200399  0.5574741916700248  1.0000
  C   C33       1.0  0.4389230971111003  0.08329853546313609  0.9212552795485179  1.0000
  C   C34       1.0  0.5610795672829595  0.0832979678145946  0.5787452688345595  1.0000
  C   C35       1.0  0.5610768115131818  0.9167011428349808  0.07874271006905076  1.0000
  C   C36       1.0  0.4389194156525916  0.9166999577451236  0.4212608484315439  1.0000
  C   C37       1.0  0.023301164393075197  0.2575954188081653  0.5719764487594077  1.0000
  C   C38       1.0  0.9766999692545183  0.25759787217437247  0.9280181148168155  1.0000
  C   C39       1.0  0.9766978083185833  0.742403383125037  0.42802355431872025  1.0000
  C   C40       1.0  0.023300882943267695  0.7424009297693671  0.0719824469820622  1.0000
  C   C41       1.0  0.011595695304904998  0.3830276402095479  0.5354366129038226  1.0000
  C   C42       1.0  0.9884042358281278  0.3830299845959431  0.9645614954911039  1.0000
  C   C43       1.0  0.9884023402154513  0.6169702853615178  0.46456463936145553  1.0000
  C   C44       1.0  0.011599431762782298  0.6169688173719122  0.03543761156866759  1.0000
  C   C45       1.0  0.08863358176837718  0.469896243477706  0.6010118063476284  1.0000
  C   C46       1.0  0.9113702829341859  0.4698971576396005  0.8989869997206555  1.0000
  C   C47       1.0  0.9113663306863484  0.5301025584607757  0.39898847609087795  1.0000
  C   C48       1.0  0.08863432567847698  0.5301016443307631  0.10101315097289638  1.0000
  C   C49       1.0  0.9226214266773665  0.4143145836887284  0.43465495323427916  1.0000
  C   C50       1.0  0.07737868027388117  0.4143146545493793  0.06534484752121729  1.0000
  C   C51       1.0  0.07737848705605187  0.5856842182469748  0.5653460934776362  1.0000
  C   C52       1.0  0.922625927060096  0.5856841474237483  0.9346545388989327  1.0000
  N   N1        1.0  0.8786012836258834  0.8941793745338986  0.7774884441170186  1.0000
  N   N2        1.0  0.12139957122246867  0.8941832738646909  0.7225102190146727  1.0000
  N   N3        1.0  0.12139862756701798  0.10582205646135631  0.2225110740459471  1.0000
  N   N4        1.0  0.8786022207296252  0.10581728078699369  0.27749062214315495  1.0000
  O   O1        1.0  0.9510748594453485  0.9810313341216597  0.8327371556430592  1.0000
  O   O2        1.0  0.04892522748623659  0.9810337892171148  0.6672592798402235  1.0000
  O   O3        1.0  0.048925991484992395  0.018969220527530695  0.1672626418809955  1.0000
  O   O4        1.0  0.9510765644714779  0.0189676417859133  0.3327415613169081  1.0000
  O   O5        1.0  0.18261474426306273  0.9965178091568633  0.01235747035603651  1.0000
  O   O6        1.0  0.8173872003693957  0.99651331662924  0.4876442988448487  1.0000
  O   O7        1.0  0.8173851643668398  0.0034827454925902995  0.9876405192608217  1.0000
  O   O8        1.0  0.1826089556873214  0.0034881143366333987  0.5123563946968517  1.0000
  O   O9        1.0  0.17956048700252578  0.10811263882007441  0.8670147084364431  1.0000
  O   O10       1.0  0.8204443700751934  0.10811164071846238  0.6329833014661475  1.0000
  O   O11       1.0  0.8204384844641764  0.8918914212239244  0.13298453036402688  1.0000
  O   O12       1.0  0.17955742316120643  0.8918897902817948  0.367018303964386  1.0000
  O   O13       1.0  0.06440385917925787  0.23958016777456237  0.6742162295045092  1.0000
  O   O14       1.0  0.9356045562111245  0.23958456707639902  0.8257775409782083  1.0000
  O   O15       1.0  0.9355969904499163  0.7604168814720398  0.32578280374896457  1.0000
  O   O16       1.0  0.06439253828748549  0.7604133584921583  0.17422266765328936  1.0000
  O   O17       1.0  0.9913590731101961  0.1807102224253327  0.49705086584591374  1.0000
  O   O18       1.0  0.0086352115636714  0.18071333268715511  0.0029446530422916  1.0000
  O   O19       1.0  0.008638959847161199  0.8192868267999316  0.5029488578732568  1.0000
  O   O20       1.0  0.9913647008910543  0.8192854692513194  0.9970556293962147  1.0000
