data_image0
_chemical_formula_structural       K8H48C40N8O32
_chemical_formula_sum              "K8 H48 C40 N8 O32"
_cell_length_a       10.896249956241496
_cell_length_b       12.775529820734702
_cell_length_c       13.57459136080856
_cell_angle_alpha    118.06703279788363
_cell_angle_beta     113.66412645605966
_cell_angle_gamma    89.99820078868706

_space_group_name_H-M_alt    "P 1"
_space_group_IT_number       1

loop_
  _space_group_symop_operation_xyz
  'x, y, z'

loop_
  _atom_site_type_symbol
  _atom_site_label
  _atom_site_symmetry_multiplicity
  _atom_site_fract_x
  _atom_site_fract_y
  _atom_site_fract_z
  _atom_site_occupancy
  K   K1        1.0  0.2549641474617985  0.24995230258317497  0.49987870033206155  1.0000
  K   K2        1.0  0.2450799846361207  0.7501692003642544  0.5002001802997924  1.0000
  K   K3        1.0  0.745037407304345  0.7500505377660645  0.5001216840735125  1.0000
  K   K4        1.0  0.7549156566926243  0.24983452939743964  0.4998052570002686  1.0000
  K   K5        1.0  0.3650090152213039  0.6148722698120752  0.7298710661259876  1.0000
  K   K6        1.0  0.13507133496751328  0.8850215367258589  0.27015572370791585  1.0000
  K   K7        1.0  0.6349994990294691  0.38512688954398305  0.27013369205337073  1.0000
  K   K8        1.0  0.8649262617050297  0.11497766310848329  0.7298409909681356  1.0000
  H   H1        1.0  0.6691086513624072  0.5263172377217915  0.7653978074784649  1.0000
  H   H2        1.0  0.095952685837716  0.7388692784109593  0.7654631202006145  1.0000
  H   H3        1.0  0.8305585571106775  0.7613416938451395  0.23469686552518002  1.0000
  H   H4        1.0  0.40408895815387785  0.9739671628916754  0.2346728195034515  1.0000
  H   H5        1.0  0.33089921713486353  0.4736792030393958  0.23460184700980596  1.0000
  H   H6        1.0  0.9040473973258258  0.26112808444007385  0.23453508330202777  1.0000
  H   H7        1.0  0.16944660019023425  0.2386593334905457  0.7653002331678139  1.0000
  H   H8        1.0  0.5959155845523583  0.0260356687499268  0.765329294243074  1.0000
  H   H9        1.0  0.7703542340007417  0.4179793322381757  0.7767668535502212  1.0000
  H   H10       1.0  0.006196731811030459  0.8586479101469066  0.7768392514043755  1.0000
  H   H11       1.0  0.7293365150627125  0.6416166659812462  0.22331829201682044  1.0000
  H   H12       1.0  0.49375932023188807  0.08241022669736253  0.22327874897065672  1.0000
  H   H13       1.0  0.2296483192814875  0.5820161899651454  0.22323356845893025  1.0000
  H   H14       1.0  0.9938048378667401  0.14135127563431382  0.22316025551288723  1.0000
  H   H15       1.0  0.27066432992132416  0.3583870993479223  0.776680055225768  1.0000
  H   H16       1.0  0.5062431719431261  0.9175962555456036  0.776725035183354  1.0000
  H   H17       1.0  0.7674015216500365  0.5365394062912898  0.9120750566488669  1.0000
  H   H18       1.0  0.1444368766007216  0.8753200062576738  0.9121492612655333  1.0000
  H   H19       1.0  0.7323325680843878  0.624873842616225  0.08803486443448354  1.0000
  H   H20       1.0  0.355615430103569  0.9637401378058216  0.08797650011652544  1.0000
  H   H21       1.0  0.23260534540976616  0.46345703615097733  0.08792426461906909  1.0000
  H   H22       1.0  0.8555631425342155  0.12468100016815954  0.08785200876520345  1.0000
  H   H23       1.0  0.26766908345502577  0.3751253614870295  0.9119609940831311  1.0000
  H   H24       1.0  0.6443893551410511  0.0362636061414179  0.9120260987271396  1.0000
  H   H25       1.0  0.9675085178577872  0.0497128504971869  0.4183389002255922  1.0000
  H   H26       1.0  0.4509079510740932  0.8686298080038883  0.4182116978052692  1.0000
  H   H27       1.0  0.5328814416340819  0.6314501449871629  0.581903619187628  1.0000
  H   H28       1.0  0.04919956143989884  0.4503649687798444  0.5816793383980753  1.0000
  H   H29       1.0  0.03249177656017825  0.9502890755630917  0.5816613955424261  1.0000
  H   H30       1.0  0.5490925203929464  0.13137301570439772  0.5817920017796183  1.0000
  H   H31       1.0  0.46710869264404664  0.3685472493322664  0.41808833339190005  1.0000
  H   H32       1.0  0.950804222367246  0.5496387768484753  0.4183229272252477  1.0000
  H   H33       1.0  0.11548710541818251  0.043148901498526  0.5037282436709916  1.0000
  H   H34       1.0  0.38820694881333395  0.960362787699154  0.5036017514372874  1.0000
  H   H35       1.0  0.3847405634256731  0.539827644980072  0.4965089798118285  1.0000
  H   H36       1.0  0.11185413409435094  0.4570268910440803  0.49637245848080624  1.0000
  H   H37       1.0  0.8845119286516053  0.9568521102727916  0.49627196345947794  1.0000
  H   H38       1.0  0.6117932801153286  0.039639123703501915  0.49640146305046073  1.0000
  H   H39       1.0  0.615248536670329  0.46016974369162267  0.5034840989072223  1.0000
  H   H40       1.0  0.8881488744413704  0.5429777649065386  0.5036306886992536  1.0000
  H   H41       1.0  0.7116805798555674  0.3263732452805642  0.8861407700501405  1.0000
  H   H42       1.0  0.1743214002393216  0.05964465965141132  0.8862857493239887  1.0000
  H   H43       1.0  0.788174100309469  0.44057523893666684  0.11375596838611565  1.0000
  H   H44       1.0  0.3257014792742936  0.17392116289553883  0.11388707722204575  1.0000
  H   H45       1.0  0.2883186952919062  0.6736250205639609  0.11385977436908962  1.0000
  H   H46       1.0  0.8256811545036059  0.9403545207843252  0.1137148204935486  1.0000
  H   H47       1.0  0.21181945786852205  0.5594239602931809  0.8862408727684399  1.0000
  H   H48       1.0  0.6742980562445808  0.8260816771514502  0.8861133704227842  1.0000
  C   C1        1.0  0.5241631476840212  0.263755667202517  0.9453819949604924  1.0000
  C   C2        1.0  0.4211740319574345  0.18143646614497305  0.9454556452887176  1.0000
  C   C3        1.0  0.9757979486209721  0.31878543814229954  0.054622159639500095  1.0000
  C   C4        1.0  0.0788754411689183  0.23652463934580234  0.05465023615665391  1.0000
  C   C5        1.0  0.4758353849366871  0.7362435162931292  0.05461797165561686  1.0000
  C   C6        1.0  0.5788269886149777  0.8185645385997875  0.054545957962361065  1.0000
  C   C7        1.0  0.02419455900256647  0.6812137517754026  0.945376537334504  1.0000
  C   C8        1.0  0.9211206035000786  0.7634727229007298  0.9453480938244926  1.0000
  C   C9        1.0  0.5100371596113574  0.24430011660100356  0.8291693853421124  1.0000
  C   C10       1.0  0.3190429734678375  0.0846460288062261  0.8293187094914102  1.0000
  C   C11       1.0  0.9898275423632228  0.41556361748130416  0.17078320076035428  1.0000
  C   C12       1.0  0.1809640562455854  0.2559084050070339  0.170816354609407  1.0000
  C   C13       1.0  0.48996284315125394  0.7557008861604259  0.17083261436855665  1.0000
  C   C14       1.0  0.6809589666804075  0.9153549559354275  0.17068687537965138  1.0000
  C   C15       1.0  0.01016452783984795  0.5844301005859266  0.8292121891711876  1.0000
  C   C16       1.0  0.8190317637180585  0.7440917068306947  0.8291809084030394  1.0000
  C   C17       1.0  0.41116049939549987  0.1460532752542392  0.7148752557706646  1.0000
  C   C18       1.0  0.3035846483242963  0.06849435166713391  0.7149655375297145  1.0000
  C   C19       1.0  0.08873808475309632  0.43169391909895455  0.2851330259450934  1.0000
  C   C20       1.0  0.19639028146247037  0.3540897860236997  0.2851568618399015  1.0000
  C   C21       1.0  0.5888398113947916  0.8539486544704504  0.28512431031742125  1.0000
  C   C22       1.0  0.696417616223961  0.9315075637021835  0.28503688403884564  1.0000
  C   C23       1.0  0.9112599791631765  0.5683034434498282  0.7148652407967904  1.0000
  C   C24       1.0  0.8036045043190471  0.6459103201662945  0.7148415273120678  1.0000
  C   C25       1.0  0.5796477104093043  0.39558753962685966  0.787576306396531  1.0000
  C   C26       1.0  0.20777321959869965  0.8918198459981355  0.787710545351601  1.0000
  C   C27       1.0  0.9201308232062145  0.608459369928042  0.21258110558578389  1.0000
  C   C28       1.0  0.29218041985664195  0.10460977119754493  0.21236453671996713  1.0000
  C   C29       1.0  0.42035484433361603  0.604411640808877  0.21242426342100637  1.0000
  C   C30       1.0  0.792229076233518  0.10817841846755984  0.21229026904872236  1.0000
  C   C31       1.0  0.0798712151759915  0.3915416368000423  0.7874201012056974  1.0000
  C   C32       1.0  0.7078178538533564  0.8953884963280601  0.7876356744789278  1.0000
  C   C33       1.0  0.7035703569187676  0.47327231345925486  0.8110343356514209  1.0000
  C   C34       1.0  0.10722749411452534  0.8375832141318542  0.8111072003750484  1.0000
  C   C35       1.0  0.7961658771519141  0.662646084231632  0.18908154539497704  1.0000
  C   C36       1.0  0.3927710529817858  0.027031631649741403  0.18900888831351648  1.0000
  C   C37       1.0  0.29643547595890857  0.526724123335278  0.188966111756038  1.0000
  C   C38       1.0  0.8927730413811262  0.16241596600163893  0.18889343268173772  1.0000
  C   C39       1.0  0.2038352252821269  0.337354938835155  0.8109164094564534  1.0000
  C   C40       1.0  0.607232504659308  0.9729712053373449  0.8109921625327347  1.0000
  N   N1        1.0  0.6092446401607318  0.31995888000916045  0.8333283648572875  1.0000
  N   N2        1.0  0.2240021050811762  0.013221548339274102  0.8335450832673886  1.0000
  N   N3        1.0  0.8905783466855297  0.4870269136877143  0.16658970882603097  1.0000
  N   N4        1.0  0.2760131841718376  0.1802546848495226  0.16663424236012508  1.0000
  N   N5        1.0  0.3907561378732964  0.6800412124299628  0.16667275329663772  1.0000
  N   N6        1.0  0.7759986565805262  0.9867785404354451  0.16645676456646907  1.0000
  N   N7        1.0  0.10941795689417695  0.5129713645288592  0.8334083765723224  1.0000
  N   N8        1.0  0.723980923111526  0.8197426954167853  0.8333605024606145  1.0000
  O   O1        1.0  0.40440887672720993  0.11573477011850743  0.608197272539627  1.0000
  O   O2        1.0  0.20363349352044935  0.9921167723463571  0.6083343874929386  1.0000
  O   O3        1.0  0.09543654795812984  0.5080323793035577  0.391788195499821  1.0000
  O   O4        1.0  0.29628920696060135  0.384346326689169  0.3918286383751025  1.0000
  O   O5        1.0  0.595590722820269  0.8842644263536814  0.3918001085770939  1.0000
  O   O6        1.0  0.7963650078162986  0.0078860620528971  0.3916671862914072  1.0000
  O   O7        1.0  0.9045617599572181  0.49196955378327806  0.608210704147588  1.0000
  O   O8        1.0  0.7037063540923397  0.6156528691785184  0.6081688692201297  1.0000
  O   O9        1.0  0.4593914897028029  0.4020112892329876  0.7301174101266313  1.0000
  O   O10       1.0  0.2705997969181341  0.8279888277755065  0.7302808775968902  1.0000
  O   O11       1.0  0.04037519953662641  0.6723950549024807  0.2702592837225026  1.0000
  O   O12       1.0  0.22930387083739837  0.09812831827249369  0.2697510691083451  1.0000
  O   O13       1.0  0.5406108388740664  0.5979869825615226  0.2698819449138271  1.0000
  O   O14       1.0  0.7294002043837793  0.17200851675350043  0.2697209743053932  1.0000
  O   O15       1.0  0.9596228643796467  0.32760230764630194  0.7297389830193882  1.0000
  O   O16       1.0  0.7706954861717036  0.901869965894058  0.7302458269112366  1.0000
  O   O17       1.0  0.6191701046495411  0.34384148622606153  0.05018340458467214  1.0000
  O   O18       1.0  0.43112680203337556  0.20630763692042114  0.05034684613995914  1.0000
  O   O19       1.0  0.8808073245277795  0.29396320914424484  0.9497679610620439  1.0000
  O   O20       1.0  0.06906101004938851  0.15647579416810237  0.9498255850015342  1.0000
  O   O21       1.0  0.3808317552228999  0.6561549646215855  0.9498142505815681  1.0000
  O   O22       1.0  0.5688761886693285  0.7936933571333712  0.9496568829116543  1.0000
  O   O23       1.0  0.11918749253769796  0.7060332461421341  0.05022882092168159  1.0000
  O   O24       1.0  0.9309355524410207  0.8435234000185047  0.05017225581404024  1.0000
  O   O25       1.0  0.0665639296204503  0.0660457359351412  0.44007490813134353  1.0000
  O   O26       1.0  0.3735761548064931  0.8738598937244652  0.43990500247545605  1.0000
  O   O27       1.0  0.4338469942991381  0.6262999368188602  0.5602363172356348  1.0000
  O   O28       1.0  0.1265740036615526  0.4341221187035346  0.5600188481583575  1.0000
  O   O29       1.0  0.9334356371823844  0.9339534532082397  0.5599239323452423  1.0000
  O   O30       1.0  0.6264260769971131  0.12614201431603791  0.560098878452962  1.0000
  O   O31       1.0  0.5661421057968568  0.3736974518528414  0.43975676148341597  1.0000
  O   O32       1.0  0.8734300063116436  0.5658825355660116  0.4399846322420445  1.0000
