data_image0
_chemical_formula_structural       Al2H15C28S2O16
_chemical_formula_sum              "Al2 H15 C28 S2 O16"
_cell_length_a       6.622445280445009
_cell_length_b       11.03669359089375
_cell_length_c       17.48834907106166
_cell_angle_alpha    87.32599286330347
_cell_angle_beta     80.3014914837885
_cell_angle_gamma    74.13491500621554

_space_group_name_H-M_alt    "P 1"
_space_group_IT_number       1

loop_
  _space_group_symop_operation_xyz
  'x, y, z'

loop_
  _atom_site_type_symbol
  _atom_site_label
  _atom_site_symmetry_multiplicity
  _atom_site_fract_x
  _atom_site_fract_y
  _atom_site_fract_z
  _atom_site_occupancy
  Al  Al1       1.0  0.5252834469034867  0.4885284125277706  0.49349857355421284  1.0000
  Al  Al2       1.0  0.0228829048033887  0.4841399625576699  0.5002128046547867  1.0000
  H   H1        1.0  0.28991233377680453  0.39857164040803633  0.5824470136057371  1.0000
  H   H2        1.0  0.7727364662448225  0.6013373556579252  0.4232790741505852  1.0000
  H   H3        1.0  0.6163232516046264  0.6489240234688153  0.12563689285548926  1.0000
  H   H4        1.0  0.06966259133444914  0.5048786747366663  0.1243542771335981  1.0000
  H   H5        1.0  0.04232513489177591  0.47160274888152287  0.2676326630631962  1.0000
  H   H6        1.0  0.835244386750695  0.4818697435114884  0.8931724999014108  1.0000
  H   H7        1.0  0.9586814979455057  0.449930656936985  0.7505165466617925  1.0000
  H   H8        1.0  0.30872140568212086  0.5548383182480094  0.7119534600493083  1.0000
  H   H9        1.0  0.1827726676551933  0.5908881403758032  0.8541594601641904  1.0000
  H   H10       1.0  0.2306097617525396  0.21750740088807416  0.377818802819327  1.0000
  H   H11       1.0  0.4937177187340538  0.756299699374402  0.4091636193877193  1.0000
  H   H12       1.0  0.7894781407416149  0.8642727508294781  0.5550197692372549  1.0000
  H   H13       1.0  0.6600603854031917  0.09866706266658547  0.542843397765445  1.0000
  H   H14       1.0  0.7001446311354583  0.23764968547954615  0.3740472294118007  1.0000
  H   H15       1.0  0.5869361155432742  0.6140284481130394  0.26804323483736425  1.0000
  C   C1        1.0  0.8802435095350065  0.25753294567169144  0.480726476777491  1.0000
  C   C2        1.0  0.7108399623099546  0.4848596947690495  0.6376436811364528  1.0000
  C   C3        1.0  0.1697636772802015  0.7141284118948831  0.5051480026503867  1.0000
  C   C4        1.0  0.3102595004283303  0.5042247507865838  0.3587428494835478  1.0000
  C   C5        1.0  0.3174265624402679  0.5361054639011441  0.2750898527194252  1.0000
  C   C6        1.0  0.47625630944676095  0.5894144180912662  0.23600760019781564  1.0000
  C   C7        1.0  0.49326394902225  0.6083443672330587  0.1567010642508251  1.0000
  C   C8        1.0  0.3507385081308598  0.5733024827291473  0.1153532326988369  1.0000
  C   C9        1.0  0.1810912122273081  0.5288741244215559  0.1562965801694958  1.0000
  C   C10       1.0  0.16619755038799164  0.5099864313252879  0.2353878894103261  1.0000
  C   C11       1.0  0.3888972562723012  0.572157540625028  0.0339176886164481  1.0000
  C   C12       1.0  0.4349973654469678  0.5594855338864518  0.9632513409965071  1.0000
  C   C13       1.0  0.5011347875652065  0.5398052799743098  0.882935658367316  1.0000
  C   C14       1.0  0.7213681010426072  0.4994888982773844  0.8529118918660217  1.0000
  C   C15       1.0  0.7895350335108446  0.48105912312460924  0.7738426102986011  1.0000
  C   C16       1.0  0.6407165247588511  0.5010604461410679  0.7229498765956562  1.0000
  C   C17       1.0  0.4219522324300513  0.5389280492462873  0.7523919875027687  1.0000
  C   C18       1.0  0.3521048537098039  0.5587446107126935  0.8312731583294095  1.0000
  C   C19       1.0  0.9544365561376154  0.11697399319723437  0.4772605523046565  1.0000
  C   C20       1.0  0.160968750916048  0.0534217444664975  0.43848232222489253  1.0000
  C   C21       1.0  0.8210670882191378  0.0487592769649225  0.5165714987549421  1.0000
  C   C22       1.0  0.2883273759916207  0.1165912842285906  0.3871380805968769  1.0000
  C   C23       1.0  0.4825958039211998  0.05259472479220759  0.3455194908609299  1.0000
  C   C24       1.0  0.10094484831042658  0.8535760970512242  0.49273309634065743  1.0000
  C   C25       1.0  0.8939293938255447  0.9176992696781665  0.5239585252135086  1.0000
  C   C26       1.0  0.23603553314423223  0.9198688837643656  0.4466401375112595  1.0000
  C   C27       1.0  0.4357200129685951  0.8575296234380759  0.40393861873798187  1.0000
  C   C28       1.0  0.5597573972074131  0.9200071895696523  0.3541936450499747  1.0000
  S   S1        1.0  0.6131905502664735  0.1496628059725822  0.2805893257163206  1.0000
  S   S2        1.0  0.8104973525260136  0.8213306658906275  0.3061632851381617  1.0000
  O   O1        1.0  0.6923421143040117  0.3113768359388445  0.4666161862639058  1.0000
  O   O2        1.0  0.8970595026659396  0.4929033808304482  0.6093179371634321  1.0000
  O   O3        1.0  0.02730149264287007  0.6573084808315883  0.5036892728052322  1.0000
  O   O4        1.0  0.46538441469560626  0.5138692657162592  0.3907783922032806  1.0000
  O   O5        1.0  0.3603663056729403  0.6630033627401629  0.5155263739703742  1.0000
  O   O6        1.0  0.1508648273227919  0.4695779577760674  0.393764674248871  1.0000
  O   O7        1.0  0.008642884082583202  0.3120170615663369  0.5004533436096352  1.0000
  O   O8        1.0  0.5763299501181224  0.4641189105864996  0.5991099165370741  1.0000
  O   O9        1.0  0.29076372407273954  0.42655852031440833  0.5290334410771179  1.0000
  O   O10       1.0  0.7640100999101308  0.5426750576717366  0.4672511071729133  1.0000
  O   O11       1.0  0.7755437000521894  0.17982644358375668  0.3298171451616696  1.0000
  O   O12       1.0  0.7400038751573491  0.0796376629072384  0.21458698762003084  1.0000
  O   O13       1.0  0.4519626752919664  0.26494029515944817  0.2712316815381115  1.0000
  O   O14       1.0  0.7935918125329379  0.811781379538921  0.22464821803409052  1.0000
  O   O15       1.0  0.973681042009112  0.8784219747543248  0.32182821849024623  1.0000
  O   O16       1.0  0.8262050325501348  0.6979309783027503  0.34489413615611403  1.0000
