data_image0
_chemical_formula_structural       Zn2H12C50N8O20
_chemical_formula_sum              "Zn2 H12 C50 N8 O20"
_cell_length_a       13.204784867
_cell_length_b       14.436346760860914
_cell_length_c       28.06669169204124
_cell_angle_alpha    89.99996248615686
_cell_angle_beta     90.00009075725039
_cell_angle_gamma    89.9760155166944

_space_group_name_H-M_alt    "P 1"
_space_group_IT_number       1

loop_
  _space_group_symop_operation_xyz
  'x, y, z'

loop_
  _atom_site_type_symbol
  _atom_site_label
  _atom_site_symmetry_multiplicity
  _atom_site_fract_x
  _atom_site_fract_y
  _atom_site_fract_z
  _atom_site_occupancy
  Zn  Zn1       1.0  0.3944366079168588  0.5000151045501013  0.49999979171040115  1.0000
  Zn  Zn2       1.0  0.6055631209409851  0.4999846259219253  0.5000001480046166  1.0000
  H   H1        1.0  0.33783698949761726  0.5153338838721238  0.6527114132664806  1.0000
  H   H2        1.0  0.3379298215260888  0.4839918533055678  0.3472917330965046  1.0000
  H   H3        1.0  0.6621622529244178  0.4846661501199207  0.6527128384433568  1.0000
  H   H4        1.0  0.662071150461166  0.5160089590286248  0.3472917330965046  1.0000
  H   H5        1.0  0.4767790832726674  0.7320331766191399  0.8778359156245941  1.0000
  H   H6        1.0  0.478103702536508  0.26788827919079233  0.12216758703261381  1.0000
  H   H7        1.0  0.5232148605521658  0.267964205571772  0.8778366282130321  1.0000
  H   H8        1.0  0.5218919683678463  0.7321096433754022  0.1221679433268363  1.0000
  H   H9        1.0  0.5175572389808138  0.7346332475179622  0.0340300171634524  1.0000
  H   H10       1.0  0.5190829614279692  0.2654419868118438  0.9659820365550189  1.0000
  H   H11       1.0  0.4824355664297286  0.2653648996614706  0.0340296608692299  1.0000
  H   H12       1.0  0.4809130896875756  0.7345572488354718  0.9659809676723583  1.0000
  C   C1        1.0  0.49997818725348236  0.6797468795184541  0.499996941356649  1.0000
  C   C2        1.0  0.5000200269778786  0.32025285096266026  0.4999958724739884  1.0000
  C   C3        1.0  0.4999994201129141  0.5000004393791855  0.593039970034809  1.0000
  C   C4        1.0  0.4999995508168594  0.500000676482287  0.4069621074455227  1.0000
  C   C5        1.0  0.4902185640059073  0.5867464799768669  0.8206845414048374  1.0000
  C   C6        1.0  0.4906790135383473  0.4132200010694901  0.1793260871367508  1.0000
  C   C7        1.0  0.5097772677702181  0.4132489697724607  0.82068489769906  1.0000
  C   C8        1.0  0.5093223440578001  0.5867763904406258  0.1793260871367508  1.0000
  C   C9        1.0  0.5901204088302023  0.4929562495630932  0.7212228723690188  1.0000
  C   C10       1.0  0.590076679319715  0.5074798794340153  0.2787834806419411  1.0000
  C   C11       1.0  0.40987626800756516  0.5070387609629491  0.7212218034863653  1.0000
  C   C12       1.0  0.40992534841651446  0.4925155659203709  0.2787831243477186  1.0000
  C   C13       1.0  0.5907940354187318  0.4917489433930981  0.6716979759097726  1.0000
  C   C14       1.0  0.5907434952675529  0.5086449311437633  0.3283076645127494  1.0000
  C   C15       1.0  0.4092038212150939  0.5082489641275103  0.6716972633213345  1.0000
  C   C16       1.0  0.4092581071183474  0.4913538514817261  0.3283076645127494  1.0000
  C   C17       1.0  0.4999976694126431  0.49999747185238147  0.7474429202491137  1.0000
  C   C18       1.0  0.5000013043894356  0.49999740973706946  0.2525648579387294  1.0000
  C   C19       1.0  0.499998933551936  0.49999866521817876  0.8981446861150744  1.0000
  C   C20       1.0  0.500000796603949  0.49999829445815874  0.10186416095541523  1.0000
  C   C21       1.0  0.4920242002944661  0.5849744966026762  0.873101121746558  1.0000
  C   C22       1.0  0.4924516183412635  0.4150079164509037  0.1269116445603515  1.0000
  C   C23       1.0  0.5079734981487647  0.4150228976545235  0.8731018343349959  1.0000
  C   C24       1.0  0.5075486283207625  0.5849899940254062  0.126912000854567  1.0000
  C   C25       1.0  0.4844193972889316  0.6678604002840557  0.8979832848338134  1.0000
  C   C26       1.0  0.4853617591012663  0.3320977684111027  0.1020259185309058  1.0000
  C   C27       1.0  0.5155761968266148  0.3321369305627186  0.8979839974222514  1.0000
  C   C28       1.0  0.5146360480569924  0.6679002054847131  0.1020262748251213  1.0000
  C   C29       1.0  0.4999996012218445  0.49999898569569007  0.6466348153591995  1.0000
  C   C30       1.0  0.5000008855856635  0.4999993593787194  0.35336939988644644  1.0000
  C   C31       1.0  0.5029273729391477  0.5863464215326386  0.0260076965254896  1.0000
  C   C32       1.0  0.503541973817093  0.413667855544908  0.9740018631334451  1.0000
  C   C33       1.0  0.49707295114060907  0.4136524387862863  0.0260080528197051  1.0000
  C   C34       1.0  0.49645791813590273  0.5863306669674556  0.9740015068392296  1.0000
  C   C35       1.0  0.5000006243794033  0.49999974477982073  0.050907674323696  1.0000
  C   C36       1.0  0.4999998621242838  0.4999992929856844  0.9491004601583626  1.0000
  C   C37       1.0  0.5118298716103027  0.6683546774521288  0.0523203809025574  1.0000
  C   C38       1.0  0.5129616059048914  0.33169354173083576  0.9476913165216914  1.0000
  C   C39       1.0  0.4881660861869078  0.331643423115615  0.0523200246083348  1.0000
  C   C40       1.0  0.4870358369472712  0.6683050478325397  0.9476906039332533  1.0000
  C   C41       1.0  0.49994616981160794  0.7794930376065918  0.4999937347086743  1.0000
  C   C42       1.0  0.500052044712767  0.22050600018751246  0.4999919532375756  1.0000
  C   C43       1.0  0.4999496916846766  0.864463988215334  0.4999876777069474  1.0000
  C   C44       1.0  0.500049280098949  0.1355350495946581  0.4999855399416333  1.0000
  C   C45       1.0  0.4999791575196965  0.9572811073681038  0.4999858962358559  1.0000
  C   C46       1.0  0.5000198139373139  0.042718623141610096  0.4999844710589798  1.0000
  C   C47       1.0  0.8513043458779279  0.499983240533389  0.4999972976508645  1.0000
  C   C48       1.0  0.14869462502784359  0.5000178753371642  0.499997653945087  1.0000
  C   C49       1.0  0.9537641692118086  0.49999570906336993  0.499996941356649  1.0000
  C   C50       1.0  0.0462340437563  0.5000067922002669  0.4999972976508645  1.0000
  N   N1        1.0  0.49999708310082974  0.4999974071503388  0.7982209034770449  1.0000
  N   N2        1.0  0.5000011330925958  0.49999816713156514  0.2017897250645433  1.0000
  N   N3        1.0  0.7629916670715743  0.49997077200432466  0.499996941356649  1.0000
  N   N4        1.0  0.23700654716697758  0.5000289584740611  0.4999980102393025  1.0000
  N   N5        1.0  0.31015769498083756  0.5142157544918575  0.7452388842095701  1.0000
  N   N6        1.0  0.3102376117050696  0.4849118715988537  0.2547696065667111  1.0000
  N   N7        1.0  0.6898383859909744  0.4857798875235487  0.7452406656806616  1.0000
  N   N8        1.0  0.6897634963699844  0.5150850203444433  0.2547699628609266  1.0000
  O   O1        1.0  0.4134842926887927  0.6405700677044662  0.499495635390332  1.0000
  O   O2        1.0  0.5865139184881869  0.3594289713562872  0.4994959916845474  1.0000
  O   O3        1.0  0.4134970869314713  0.35944282399861993  0.5005000287940575  1.0000
  O   O4        1.0  0.5865011310134844  0.6405562125011455  0.5005014539709336  1.0000
  O   O5        1.0  0.4139035256173784  0.5011357941598931  0.5727151663044694  1.0000
  O   O6        1.0  0.5860951602728405  0.5011429064288818  0.42728584229320893  1.0000
  O   O7        1.0  0.4139040779174792  0.4988590874390937  0.4272851297047708  1.0000
  O   O8        1.0  0.5860959350276858  0.49886513639435026  0.5727155225986849  1.0000
  O   O9        1.0  0.4805336048302777  0.657359949585661  0.7965505961777595  1.0000
  O   O10       1.0  0.48140722984481954  0.3425587354367607  0.203455400538985  1.0000
  O   O11       1.0  0.5194582785390978  0.34263417627423104  0.7965516650604201  1.0000
  O   O12       1.0  0.5185958048607802  0.6574375945810614  0.20345575683320052  1.0000
  O   O13       1.0  0.24378275485189957  0.558208217378052  0.723850185940897  1.0000
  O   O14       1.0  0.2992297188720697  0.4750478975527769  0.7841141464589825  1.0000
  O   O15       1.0  0.24409250429523147  0.4407074436894546  0.2761750506636815  1.0000
  O   O16       1.0  0.2991009005831344  0.5239882926720298  0.2158808051369689  1.0000
  O   O17       1.0  0.7562146963594782  0.4417881718401019  0.7238526800004267  1.0000
  O   O18       1.0  0.7007643526478092  0.5249462599991617  0.7841162842242966  1.0000
  O   O19       1.0  0.755907990004438  0.5592907790962157  0.2761750506636815  1.0000
  O   O20       1.0  0.7009007035206307  0.47600731298398796  0.21588151772540703  1.0000
