data_image0
_chemical_formula_structural       Mo2H22C20N2O8
_chemical_formula_sum              "Mo2 H22 C20 N2 O8"
_cell_length_a       7.555612532363209
_cell_length_b       8.42364526643691
_cell_length_c       9.714247615535106
_cell_angle_alpha    99.41754568414618
_cell_angle_beta     112.84854387347661
_cell_angle_gamma    102.79823390288213

_space_group_name_H-M_alt    "P 1"
_space_group_IT_number       1

loop_
  _space_group_symop_operation_xyz
  'x, y, z'

loop_
  _atom_site_type_symbol
  _atom_site_label
  _atom_site_symmetry_multiplicity
  _atom_site_fract_x
  _atom_site_fract_y
  _atom_site_fract_z
  _atom_site_occupancy
  Mo  Mo1       1.0  0.05500536692202469  0.5696223881243725  0.43449235714322737  1.0000
  Mo  Mo2       1.0  0.9449624144578906  0.43033593218977745  0.5655455854351457  1.0000
  H   H1        1.0  0.05515268678151134  0.9551416305655992  0.34414904581660005  1.0000
  H   H2        1.0  0.9448384955615909  0.0448443936214034  0.655854545375348  1.0000
  H   H3        1.0  0.2301191804215464  0.0833921243478173  0.2917713896978994  1.0000
  H   H4        1.0  0.7698662409941265  0.9166129414032723  0.7082362024580104  1.0000
  H   H5        1.0  0.969470829625763  0.0106610919823567  0.16528656584886645  1.0000
  H   H6        1.0  0.030531337045388785  0.9893426628162274  0.8347217917352833  1.0000
  H   H7        1.0  0.6026525396136648  0.553132717530744  0.9403056138400813  1.0000
  H   H8        1.0  0.39736973416037097  0.44685960029470817  0.059710319985668975  1.0000
  H   H9        1.0  0.6531563700243554  0.7622006634683841  0.9188008079694822  1.0000
  H   H10       1.0  0.3468448604719896  0.2377815007808408  0.0811939611555985  1.0000
  H   H11       1.0  0.6941128111981244  0.6037480800922026  0.8015375351081884  1.0000
  H   H12       1.0  0.30586115108719986  0.39623415915785654  0.19845723039636445  1.0000
  H   H13       1.0  0.9841106761885783  0.6171368930994774  0.0779947313112999  1.0000
  H   H14       1.0  0.015906307836900207  0.3828756568594329  0.922002864822687  1.0000
  H   H15       1.0  0.6939310491007049  0.9727702258407831  0.36654373955720826  1.0000
  H   H16       1.0  0.3060773342626534  0.027230908855997903  0.6334445155389331  1.0000
  H   H17       1.0  0.13758663264199109  0.7732659303582637  0.9375801266973836  1.0000
  H   H18       1.0  0.8624241329370791  0.22674535878159932  0.06241438291772274  1.0000
  H   H19       1.0  0.5165995206153795  0.7888207537718654  0.4829398212359661  1.0000
  H   H20       1.0  0.48341698967592356  0.21118671424000726  0.5170538345862922  1.0000
  H   H21       1.0  0.6831885212640431  0.08789329744702461  0.15944708127281604  1.0000
  H   H22       1.0  0.31681554057387745  0.9121230720964207  0.8405450793604458  1.0000
  C   C1        1.0  0.0795432825005093  0.05568135233605181  0.28887779354584336  1.0000
  C   C2        1.0  0.9204464535346659  0.9443161044716247  0.7111321015993395  1.0000
  C   C3        1.0  0.05489916448584613  0.21272419688303051  0.3665103929571528  1.0000
  C   C4        1.0  0.9450972643790154  0.7872757531402925  0.6334926098934445  1.0000
  C   C5        1.0  0.3842724895277386  0.5845617440755859  0.7334288059181302  1.0000
  C   C6        1.0  0.615725855258674  0.4154356595117293  0.26657236258702693  1.0000
  C   C7        1.0  0.5961625922363611  0.6266743235879987  0.8563901618458727  1.0000
  C   C8        1.0  0.40382524714487295  0.37330664103955513  0.14361377123016433  1.0000
  C   C9        1.0  0.14281395055361656  0.6950061651863847  0.1369445888077862  1.0000
  C   C10       1.0  0.8571987201875404  0.3050140111439533  0.863055854271202  1.0000
  C   C11       1.0  0.5368767063128885  0.8933371739957323  0.29763550103416486  1.0000
  C   C12       1.0  0.4631244973238325  0.1066677877944286  0.7023542039724545  1.0000
  C   C13       1.0  0.4321591802009479  0.8914906842833191  0.14144890963878956  1.0000
  C   C14       1.0  0.5678582825954025  0.1085192973201714  0.8585392083725265  1.0000
  C   C15       1.0  0.22954236720578797  0.7858024236782415  0.05965440121762098  1.0000
  C   C16       1.0  0.7704727031494514  0.2142088440798418  0.9403372900577548  1.0000
  C   C17       1.0  0.43921518966784134  0.7929900801462821  0.3633046077509191  1.0000
  C   C18       1.0  0.5607879353461627  0.2070085483982567  0.6366878835484611  1.0000
  C   C19       1.0  0.5357450701305526  0.9994173336371762  0.07536280356057291  1.0000
  C   C20       1.0  0.4642680857533535  0.0005926414632710998  0.9246198928956272  1.0000
  N   N1        1.0  0.24426153193984856  0.6961733132790117  0.2859880177089024  1.0000
  N   N2        1.0  0.7557348906681797  0.30383041309712416  0.7140072745429149  1.0000
  O   O1        1.0  0.09817636637352224  0.34936646564759144  0.3273163674545002  1.0000
  O   O2        1.0  0.9018100124688574  0.6506373199142957  0.6726882475549728  1.0000
  O   O3        1.0  0.9849771989667817  0.20752497625814217  0.46822145008387384  1.0000
  O   O4        1.0  0.015024970756783761  0.7924749603604153  0.5317822582567898  1.0000
  O   O5        1.0  0.2351839731025009  0.49309678086732583  0.7485840294958803  1.0000
  O   O6        1.0  0.7648229761995538  0.5069082302589009  0.2514249207642009  1.0000
  O   O7        1.0  0.3539197397371723  0.6409550998555887  0.6134846346708327  1.0000
  O   O8        1.0  0.6460599463905583  0.35904233596900076  0.3865108935343286  1.0000
