data_image0
_chemical_formula_structural       Na2H40C26S2N2O20
_chemical_formula_sum              "Na2 H40 C26 S2 N2 O20"
_cell_length_a       8.308525200430235
_cell_length_b       8.984542737394753
_cell_length_c       12.17609658500011
_cell_angle_alpha    89.99998713122801
_cell_angle_beta     89.99999782358782
_cell_angle_gamma    116.67300218993248

_space_group_name_H-M_alt    "P 1"
_space_group_IT_number       1

loop_
  _space_group_symop_operation_xyz
  'x, y, z'

loop_
  _atom_site_type_symbol
  _atom_site_label
  _atom_site_symmetry_multiplicity
  _atom_site_fract_x
  _atom_site_fract_y
  _atom_site_fract_z
  _atom_site_occupancy
  Na  Na1       1.0  0.8839825266838658  0.5437320052464898  0.8787618614264828  1.0000
  Na  Na2       1.0  0.11601660719748001  0.45626696332028166  0.3787617390239362  1.0000
  H   H1        1.0  0.6134669695218379  0.7746029408354431  0.6720617772230355  1.0000
  H   H2        1.0  0.38653341448318906  0.22539860273197124  0.17206168592854712  1.0000
  H   H3        1.0  0.9872225156668079  0.0676679545166081  0.8853362562566431  1.0000
  H   H4        1.0  0.012778422112660347  0.932332262466268  0.3853368785195457  1.0000
  H   H5        1.0  0.6369142594029497  0.743621215543932  0.8841823044816267  1.0000
  H   H6        1.0  0.36308607169748086  0.25638024194449127  0.38418138737869617  1.0000
  H   H7        1.0  0.6540427097622654  0.12242575461087311  0.6142493790336728  1.0000
  H   H8        1.0  0.34595950188111874  0.8775745779035021  0.11425000129538891  1.0000
  H   H9        1.0  0.4599019839641939  0.9308115374529747  0.597438508039879  1.0000
  H   H10       1.0  0.5400990256195611  0.069188796359839  0.0974384386018414  1.0000
  H   H11       1.0  0.09098657673163059  0.9747758098533127  0.726584166992545  1.0000
  H   H12       1.0  0.9090132020711934  0.025221980430664794  0.2265840947720505  1.0000
  H   H13       1.0  0.6880197920340476  0.0868702167059752  0.8069277151549912  1.0000
  H   H14       1.0  0.3119811576195915  0.9131325176928443  0.306928332414877  1.0000
  H   H15       1.0  0.8021321708123637  0.5022262824832353  0.43947083685046096  1.0000
  H   H16       1.0  0.1978681541800925  0.4977726669711943  0.9394709857435829  1.0000
  H   H17       1.0  0.6402535598116685  0.3073396927844882  0.4951841124723231  1.0000
  H   H18       1.0  0.3597473505707498  0.692660479621722  0.9951850456826108  1.0000
  H   H19       1.0  0.6279106552448466  0.48699687320028323  0.6385444913379104  1.0000
  H   H20       1.0  0.3720879392633663  0.5130009472868765  0.1385443524430059  1.0000
  H   H21       1.0  0.874318010211539  0.7552623837659241  0.559952776248636  1.0000
  H   H22       1.0  0.1256806038980258  0.24473546861381834  0.059953510163460094  1.0000
  H   H23       1.0  0.23969776969818912  0.5548355522461462  0.6163748245478899  1.0000
  H   H24       1.0  0.7603020289102105  0.44516476835865854  0.1163746863249884  1.0000
  H   H25       1.0  0.18837141748695527  0.8199231622255851  0.6509474592427438  1.0000
  H   H26       1.0  0.8116265669608039  0.1800758932653608  0.1509473638510315  1.0000
  H   H27       1.0  0.9733491849417532  0.28958265369714553  0.6762815558952583  1.0000
  H   H28       1.0  0.02664999944005329  0.7104163970369299  0.1762805722492899  1.0000
  H   H29       1.0  0.4091068028066686  0.9305316551354821  0.8781442321532821  1.0000
  H   H30       1.0  0.5908929305141583  0.06946855924247333  0.37814416127521605  1.0000
  H   H31       1.0  0.6207907855759558  0.8634258054701578  0.46262847701346027  1.0000
  H   H32       1.0  0.3792101329262181  0.1365743801473798  0.9626286812106741  1.0000
  H   H33       1.0  0.6903270483221532  0.8713627692291154  0.052794341349319  1.0000
  H   H34       1.0  0.30967517864880284  0.12863758822415153  0.5527937274972317  1.0000
  H   H35       1.0  0.20782304259018503  0.8431783650859189  0.4812017601636285  1.0000
  H   H36       1.0  0.7921760734233273  0.1568180763128453  0.9812019496541637  1.0000
  H   H37       1.0  0.2665720974112914  0.6858308689157367  0.7870641622935466  1.0000
  H   H38       1.0  0.733427059340265  0.31416813686223577  0.2870640466690162  1.0000
  H   H39       1.0  0.08606669674374245  0.9002501216612088  0.9628799335754223  1.0000
  H   H40       1.0  0.9139342216956478  0.09975006385418077  0.4628806700638464  1.0000
  C   C1        1.0  0.767535552270182  0.4187606226814609  0.510293212852396  1.0000
  C   C2        1.0  0.23246487976294364  0.5812385009346316  0.0102930663998251  1.0000
  C   C3        1.0  0.6738585361741725  0.9111232222147904  0.6837970529916291  1.0000
  C   C4        1.0  0.32614245187101415  0.08887707655345173  0.183796986136926  1.0000
  C   C5        1.0  0.9102494085658677  0.9335472955831252  0.8667883689840394  1.0000
  C   C6        1.0  0.08975213312513121  0.06645417448724095  0.3667883123558511  1.0000
  C   C7        1.0  0.7098459287038351  0.881011723714515  0.8862708102727977  1.0000
  C   C8        1.0  0.29015680669895977  0.1189922295709422  0.3862707393797891  1.0000
  C   C9        1.0  0.6071964432893183  0.9901730511571715  0.5959347350711255  1.0000
  C   C10       1.0  0.3928045666694898  0.009827283265863702  0.0959346795799974  1.0000
  C   C11       1.0  0.7620287248623325  0.5015715796542679  0.6170942642160782  1.0000
  C   C12       1.0  0.2379698749957554  0.4984262495374593  0.11709413143243101  1.0000
  C   C13       1.0  0.90213955620208  0.6826129301651847  0.6235215943638934  1.0000
  C   C14       1.0  0.09785964133840956  0.31738614197886506  0.12352149563645301  1.0000
  C   C15       1.0  0.12489702192790017  0.5612982108377124  0.6581550460708029  1.0000
  C   C16       1.0  0.8751027662602551  0.4387020928127185  0.1581540844960827  1.0000
  C   C17       1.0  0.09692661912436769  0.7051429574134859  0.6075731426524342  1.0000
  C   C18       1.0  0.9030725823938042  0.2948561212024998  0.1075730255972687  1.0000
  C   C19       1.0  0.9566546280161177  0.39548737761091257  0.6429580599802307  1.0000
  C   C20       1.0  0.04334577092923553  0.6045116921693747  0.1429579148314062  1.0000
  C   C21       1.0  0.9465021436152555  0.9091204766519213  0.7461593996765855  1.0000
  C   C22       1.0  0.053497023338294994  0.0908785457253245  0.24615933996661707  1.0000
  C   C23       1.0  0.3918859699685625  0.2929862175918316  0.766762120496189  1.0000
  C   C24       1.0  0.6081162036369108  0.7070140530325587  0.2667619427493477  1.0000
  C   C25       1.0  0.6284574304356736  0.949804266938621  0.799127114516601  1.0000
  C   C26       1.0  0.37154412813063686  0.0501972305888927  0.2991270528716612  1.0000
  S   S1        1.0  0.4671192120707629  0.37494271800815676  0.8881055981742848  1.0000
  S   S2        1.0  0.5328817250180009  0.6250574978509036  0.38810625744969224  1.0000
  N   N1        1.0  0.3383913679549195  0.2358613001152818  0.6787601959428429  1.0000
  N   N2        1.0  0.6616096290281135  0.7641365150994445  0.1787600071955637  1.0000
  O   O1        1.0  0.8766110006148439  0.7346097845062757  0.7310305930233768  1.0000
  O   O2        1.0  0.12338696385937448  0.265389238486513  0.23103132355441147  1.0000
  O   O3        1.0  0.14414809309005958  0.720681897214355  0.4934807474438614  1.0000
  O   O4        1.0  0.8558516191464064  0.27931578476211877  0.9934809147448931  1.0000
  O   O5        1.0  0.6703028029935538  0.9824471237818598  0.4868464083305497  1.0000
  O   O6        1.0  0.3296981094685519  0.017553052008125295  0.9868458124674504  1.0000
  O   O7        1.0  0.866442920191048  0.9808509075965333  0.6737626300423684  1.0000
  O   O8        1.0  0.13355505856629432  0.019148138635770803  0.1737634013882783  1.0000
  O   O9        1.0  0.8081395614528332  0.4043856804366328  0.6959939414922828  1.0000
  O   O10       1.0  0.19185961801233026  0.5956133622977617  0.19599461503583626  1.0000
  O   O11       1.0  0.9601705515578303  0.8358730196437206  0.9378505591416157  1.0000
  O   O12       1.0  0.0398285599045778  0.16412841054201271  0.4378513088637916  1.0000
  O   O13       1.0  0.6836632131601448  0.9409322659762509  0.990051191339255  1.0000
  O   O14       1.0  0.3163358929647727  0.059066657429120505  0.4900503084470387  1.0000
  O   O15       1.0  0.4368456020468726  0.8823205896542703  0.8113001536780332  1.0000
  O   O16       1.0  0.5631547472308893  0.1176808974097838  0.3113000755150779  1.0000
  O   O17       1.0  0.1538275645742289  0.581792967671042  0.7735212444694284  1.0000
  O   O18       1.0  0.846172194840591  0.4182072891634264  0.2735202871085534  1.0000
  O   O19       1.0  0.909008051920253  0.36821310823356873  0.5289215167712271  1.0000
  O   O20       1.0  0.09099237546681148  0.6317860078231022  0.0289213657637646  1.0000
