data_image0
_chemical_formula_structural       Er3H15C18N6O21
_chemical_formula_sum              "Er3 H15 C18 N6 O21"
_cell_length_a       9.642464892305426
_cell_length_b       9.642448801925681
_cell_length_c       9.6424832891628
_cell_angle_alpha    79.13629992111154
_cell_angle_beta     79.13605342005982
_cell_angle_gamma    79.13674212602864

_space_group_name_H-M_alt    "P 1"
_space_group_IT_number       1

loop_
  _space_group_symop_operation_xyz
  'x, y, z'

loop_
  _atom_site_type_symbol
  _atom_site_label
  _atom_site_symmetry_multiplicity
  _atom_site_fract_x
  _atom_site_fract_y
  _atom_site_fract_z
  _atom_site_occupancy
  Er  Er1       1.0  0.5000036066019717  0.0090676685280542  0.9909382101038562  1.0000
  Er  Er2       1.0  0.990938097781978  0.5000018866356938  0.00906664800201187  1.0000
  Er  Er3       1.0  0.009067474583027028  0.9909367495833904  0.5000038455743124  1.0000
  H   H1        1.0  0.4107880622611263  0.5892217340915451  3.5971396315453636e-06  1.0000
  H   H2        1.0  2.712622659805577e-06  0.4107772352758943  0.5892230659269019  1.0000
  H   H3        1.0  0.5892222296970359  8.435201685599894e-06  0.41077863212026966  1.0000
  H   H4        1.0  0.7639876981127571  0.8535362956863323  0.07517255509395687  1.0000
  H   H5        1.0  0.07516659006242324  0.763991602772144  0.8535400553221213  1.0000
  H   H6        1.0  0.8535384203475331  0.07516647382864508  0.7639894799488545  1.0000
  H   H7        1.0  0.9248451953618327  0.14646418081358092  0.23601519856593003  1.0000
  H   H8        1.0  0.14646692602053693  0.23601276756999565  0.9248308912963384  1.0000
  H   H9        1.0  0.2360147104911121  0.9248338030684308  0.14646937115141873  1.0000
  H   H10       1.0  0.7661136534196729  0.023190467110282498  0.062716020029832  1.0000
  H   H11       1.0  0.06271041777064573  0.7661141786461343  0.02319713808520869  1.0000
  H   H12       1.0  0.023192215061122602  0.0627164305383872  0.7661126748004252  1.0000
  H   H13       1.0  0.9372937809210952  0.9768111408331845  0.23389191796140107  1.0000
  H   H14       1.0  0.9768140876868187  0.23389017663434686  0.9372929530211355  1.0000
  H   H15       1.0  0.23389174611680374  0.9372923493751627  0.976814023598543  1.0000
  C   C1        1.0  0.6700438746839624  0.6664957171468868  0.001391842610978274  1.0000
  C   C2        1.0  0.0013803096112568064  0.6700452796374705  0.6665059782827144  1.0000
  C   C3        1.0  0.6665054189527311  0.0013780019367714996  0.6700419374513447  1.0000
  C   C4        1.0  0.9986182848666656  0.3335004099605996  0.3299600902913725  1.0000
  C   C5        1.0  0.3335077818247711  0.3299584623331384  0.9986130639995993  1.0000
  C   C6        1.0  0.32996543903683323  0.9986240493638121  0.33349872259100266  1.0000
  C   C7        1.0  0.6390158034173368  0.5195710955110043  0.9985689826400095  1.0000
  C   C8        1.0  0.9985630625018586  0.6390153376961221  0.5195793813014407  1.0000
  C   C9        1.0  0.5195788431508461  0.9985620624900733  0.6390123109089959  1.0000
  C   C10       1.0  0.0014409111661279983  0.4804284826511919  0.3609959659568248  1.0000
  C   C11       1.0  0.48043488897106823  0.360984324733586  0.0014356090356244786  1.0000
  C   C12       1.0  0.3609921941429732  0.0014448800979565  0.4804291335946261  1.0000
  C   C13       1.0  0.4992633534410942  0.500741792401989  1.1938573149842456e-07  1.0000
  C   C14       1.0  3.034845633513555e-06  0.49925752294758746  0.5007513880258686  1.0000
  C   C15       1.0  0.5007467820169467  7.016634739899972e-06  0.4992570689360035  1.0000
  C   C16       1.0  0.7235454361020855  0.2764617211526215  7.52998406739452e-06  1.0000
  C   C17       1.0  3.0439020478132203e-06  0.7235363277649611  0.2764682166067943  1.0000
  C   C18       1.0  0.2764641323491972  5.067164522599648e-06  0.7235418335223402  1.0000
  N   N1        1.0  0.7498381452220498  0.4125257883466133  0.00022998828737294576  1.0000
  N   N2        1.0  0.00022671799683141218  0.749831510246544  0.41253041103919247  1.0000
  N   N3        1.0  0.41253322055706587  0.00022290173123449975  0.7498312887134447  1.0000
  N   N4        1.0  0.9997755269490798  0.5874738570196242  0.25017690009163823  1.0000
  N   N5        1.0  0.5874797844791216  0.25016466255276265  0.9997757580055623  1.0000
  N   N6        1.0  0.2501704930110122  0.9997789125305873  0.5874758684100813  1.0000
  O   O1        1.0  0.5743492790756121  0.7711040249874939  0.9729368983083833  1.0000
  O   O2        1.0  0.9729194561791059  0.5743527425814604  0.7711045653503494  1.0000
  O   O3        1.0  0.771109616659068  0.9729199798641157  0.5743506181078647  1.0000
  O   O4        1.0  0.027082278140788705  0.22889112556323704  0.42565113772814583  1.0000
  O   O5        1.0  0.2289060811792893  0.4256618906295557  0.027064532812055085  1.0000
  O   O6        1.0  0.4256468047674177  0.027093557980734297  0.2288940360242151  1.0000
  O   O7        1.0  0.7901500772482849  0.6732296993540602  0.035542207415460304  1.0000
  O   O8        1.0  0.03552952574364812  0.7901544638124491  0.6732466692128726  1.0000
  O   O9        1.0  0.6732399532687907  0.03552082712965898  0.7901525265892533  1.0000
  O   O10       1.0  0.9644750807646433  0.32676783004884397  0.2098503052378149  1.0000
  O   O11       1.0  0.32677168287786873  0.20984723553420537  0.9644710394490732  1.0000
  O   O12       1.0  0.20985329112765075  0.9644711543618811  0.32676880518587853  1.0000
  O   O13       1.0  0.8272866367164085  0.1727156858488144  1.0274557062878685e-05  1.0000
  O   O14       1.0  2.8780912657961017e-06  0.8272795621755478  0.17272389674030825  1.0000
  O   O15       1.0  0.17272170385304972  1.0007971859199719e-05  0.827283268993398  1.0000
  O   O16       1.0  0.7049628247273174  0.9456763725973473  0.09362519896345853  1.0000
  O   O17       1.0  0.09361704277571903  0.7049699367951234  0.9456806513125785  1.0000
  O   O18       1.0  0.9456769597368008  0.09362421619903219  0.7049666416663387  1.0000
  O   O19       1.0  0.9063781053433929  0.054327023968873796  0.29503832501767135  1.0000
  O   O20       1.0  0.05432996565571811  0.2950352176885076  0.9063732752762166  1.0000
  O   O21       1.0  0.29503678087655777  0.9063852095985891  0.05432817513474219  1.0000
