data_image0
_chemical_formula_structural       Ag4H32C16S4N4O16
_chemical_formula_sum              "Ag4 H32 C16 S4 N4 O16"
_cell_length_a       6.080902046004935
_cell_length_b       7.331641690003306
_cell_length_c       17.70394235557348
_cell_angle_alpha    89.99990238521016
_cell_angle_beta     97.47466280072175
_cell_angle_gamma    89.99996659396925

_space_group_name_H-M_alt    "P 1"
_space_group_IT_number       1

loop_
  _space_group_symop_operation_xyz
  'x, y, z'

loop_
  _atom_site_type_symbol
  _atom_site_label
  _atom_site_symmetry_multiplicity
  _atom_site_fract_x
  _atom_site_fract_y
  _atom_site_fract_z
  _atom_site_occupancy
  Ag  Ag1       1.0  0.6675723625760741  0.5130536381382526  0.22482704386077765  1.0000
  Ag  Ag2       1.0  0.667571343905891  0.9869478462051332  0.7248263168527274  1.0000
  Ag  Ag3       1.0  0.3324238086102511  0.4869465770946204  0.7751727286928161  1.0000
  Ag  Ag4       1.0  0.33242483634206377  0.0130496411245886  0.2751740209442417  1.0000
  H   H1        1.0  0.4553319797678057  0.5524142500725729  0.39074564906179193  1.0000
  H   H2        1.0  0.4553326672827255  0.9475866623375352  0.8907455880816644  1.0000
  H   H3        1.0  0.5446708437870244  0.4475859651557812  0.6092555380669467  1.0000
  H   H4        1.0  0.5446701381528527  0.05241082499113501  0.10925446856341382  1.0000
  H   H5        1.0  0.21226867537385627  0.44988621746058743  0.3395288081587965  1.0000
  H   H6        1.0  0.2122697341801967  0.0501166172240843  0.8395279172438281  1.0000
  H   H7        1.0  0.7877324896183283  0.5501153617193211  0.6604723079468116  1.0000
  H   H8        1.0  0.7877297541300834  0.9498835980076876  0.16047199735498202  1.0000
  H   H9        1.0  0.2414968495793133  0.39195619416378236  0.4815698188145421  1.0000
  H   H10       1.0  0.24149620212880768  0.1080460475002667  0.9815693783154347  1.0000
  H   H11       1.0  0.7585109677820442  0.6080440210606142  0.5184327118667298  1.0000
  H   H12       1.0  0.7585049447441249  0.8919528037799508  0.01843060730651299  1.0000
  H   H13       1.0  0.24673015887082533  0.18441069744590516  0.4284666564418203  1.0000
  H   H14       1.0  0.24672764045990908  0.3155931219545635  0.9284654227405016  1.0000
  H   H15       1.0  0.7532743323062759  0.8155895177807437  0.5715351669518756  1.0000
  H   H16       1.0  0.7532701983486945  0.6844070932765972  0.0715349860780492  1.0000
  H   H17       1.0  0.8232633780548895  0.12024743110256958  0.49826640012994977  1.0000
  H   H18       1.0  0.8232574796586433  0.37975445735659  0.9982649758667321  1.0000
  H   H19       1.0  0.1767427535636088  0.8797527841258342  0.5017343638016671  1.0000
  H   H20       1.0  0.1767403500889984  0.620247121826729  0.0017348677089544017  1.0000
  H   H21       1.0  0.5956371949531984  0.022706019581029597  0.4372189977286071  1.0000
  H   H22       1.0  0.5956361857399842  0.4772948652223049  0.9372182780194934  1.0000
  H   H23       1.0  0.4043689366652927  0.9772941956473813  0.5627817662030027  1.0000
  H   H24       1.0  0.4043633116305971  0.5227053500083088  0.06278220182167621  1.0000
  H   H25       1.0  0.851546054831644  0.37157195731190734  0.4028596504249009  1.0000
  H   H26       1.0  0.8515487045341529  0.12843030597731797  0.9028593365573558  1.0000
  H   H27       1.0  0.14845841822620542  0.6284255300150576  0.5971410424851342  1.0000
  H   H28       1.0  0.1484524423374367  0.8715712732048927  0.09714064906356162  1.0000
  H   H29       1.0  0.8759666182635043  0.15132123137604478  0.3600501683185159  1.0000
  H   H30       1.0  0.8759640764956771  0.3486798304042081  0.8600494748398122  1.0000
  H   H31       1.0  0.1240378457327154  0.8486789838540715  0.6399499593481367  1.0000
  H   H32       1.0  0.12403707943621359  0.6513217487768512  0.1399510760234506  1.0000
  C   C1        1.0  0.37065515635573126  0.4229494379527807  0.37508376420957756  1.0000
  C   C2        1.0  0.37065617971126835  0.07705317423619111  0.8750822876839524  1.0000
  C   C3        1.0  0.6293476671990988  0.5770507772755805  0.6249174229191611  1.0000
  C   C4        1.0  0.6293432995400535  0.9229443130947385  0.12491706167354984  1.0000
  C   C5        1.0  0.33797491187441153  0.31142721365357323  0.4452384341097898  1.0000
  C   C6        1.0  0.33797250884509117  0.18857512873802304  0.9452367312109048  1.0000
  C   C7        1.0  0.6620312378646674  0.6885730015725284  0.5547634603065249  1.0000
  C   C8        1.0  0.6620269704055629  0.8114237225438996  0.054762618146078516  1.0000
  C   C9        1.0  0.682405347050391  0.1516457060951666  0.45482428927373775  1.0000
  C   C10       1.0  0.6824044732215313  0.34835779234858666  0.954824232304425  1.0000
  C   C11       1.0  0.3175991078841989  0.8483572370380938  0.5451752731495318  1.0000
  C   C12       1.0  0.31759669177065325  0.6516437868313217  0.04517688380118301  1.0000
  C   C13       1.0  0.7663453441790296  0.24243040214626177  0.3869821514670023  1.0000
  C   C14       1.0  0.7663445321158235  0.2575678757462043  0.8869804674199531  1.0000
  C   C15       1.0  0.2336557936322663  0.757571177037107  0.6130172689115626  1.0000
  C   C16       1.0  0.2336516390718444  0.7424296115846685  0.11301930513467082  1.0000
  S   S1        1.0  0.5370324141049424  0.29737737196895614  0.3144936411610786  1.0000
  S   S2        1.0  0.5370333234953578  0.20262404156082425  0.8144926349262605  1.0000
  S   S3        1.0  0.46296542470299323  0.702624207213205  0.6855067676569534  1.0000
  S   S4        1.0  0.46296616481626524  0.7973734457689476  0.18550727967358685  1.0000
  N   N1        1.0  0.0152097198569834  0.269502749208172  0.1594244316861122  1.0000
  N   N2        1.0  0.015203976751237703  0.23049682399109625  0.6594236855263349  1.0000
  N   N3        1.0  0.9848144747420448  0.7304879183802624  0.8405658086508938  1.0000
  N   N4        1.0  0.9848135745295677  0.7695143028656661  0.3405657054701338  1.0000
  O   O1        1.0  0.8919961562178074  0.4041027254188591  0.1344733415952959  1.0000
  O   O2        1.0  0.8919938711686796  0.09589379172548007  0.6344734045027565  1.0000
  O   O3        1.0  0.10799833828327372  0.595902945620857  0.8655252294489204  1.0000
  O   O4        1.0  0.1079973062158004  0.9040968758543642  0.36552502450191343  1.0000
  O   O5        1.0  0.0014928336502962  0.20948604427517376  0.22642359127198122  1.0000
  O   O6        1.0  0.0015003093043119999  0.2905064429249932  0.726423933156177  1.0000
  O   O7        1.0  0.9984967304683323  0.7905155349074419  0.7735775929176898  1.0000
  O   O8        1.0  0.998499215251826  0.7094842246451734  0.2735782424156383  1.0000
  O   O9        1.0  0.1454328380528764  0.1998158166096928  0.11833144739428293  1.0000
  O   O10       1.0  0.14541205431046933  0.3001906799373443  0.6183271831224815  1.0000
  O   O11       1.0  0.8545534723565068  0.8002007660269255  0.8816735514409262  1.0000
  O   O12       1.0  0.8545509818808058  0.6998027155469442  0.38167342995082987  1.0000
  O   O13       1.0  0.5413996232078517  0.26890044094934495  0.49171619004516043  1.0000
  O   O14       1.0  0.5413971966347476  0.231101612364391  0.9917155854742391  1.0000
  O   O15       1.0  0.4586081669726241  0.7310997742785191  0.5082846449090612  1.0000
  O   O16       1.0  0.4586022916755396  0.768898602867381  0.008284329124578  1.0000
