data_image0
_chemical_formula_structural       Zr6H16C126Br60N6O32
_chemical_formula_sum              "Zr6 H16 C126 Br60 N6 O32"
_cell_length_a       18.126646836516116
_cell_length_b       17.997968021556094
_cell_length_c       18.36396394745864
_cell_angle_alpha    90.49811168681306
_cell_angle_beta     92.24751787250065
_cell_angle_gamma    91.18905622065601

_space_group_name_H-M_alt    "P 1"
_space_group_IT_number       1

loop_
  _space_group_symop_operation_xyz
  'x, y, z'

loop_
  _atom_site_type_symbol
  _atom_site_label
  _atom_site_symmetry_multiplicity
  _atom_site_fract_x
  _atom_site_fract_y
  _atom_site_fract_z
  _atom_site_occupancy
  Zr  Zr1       1.0  0.8061399720511773  0.9759916156736921  0.8633773707599558  1.0000
  Zr  Zr2       1.0  0.761696350878431  0.8420174698319728  0.9955534055375495  1.0000
  Zr  Zr3       1.0  0.9894126495268337  0.0016891303822177011  0.9274408876984167  1.0000
  Zr  Zr4       1.0  0.9200824207478746  0.8214936882680776  0.8800673514010029  1.0000
  Zr  Zr5       1.0  0.8348360046283004  0.02523673997653471  0.04311395588005239  1.0000
  Zr  Zr6       1.0  0.9486605208120409  0.8674831710245177  0.06368311561733721  1.0000
  H   H1        1.0  0.1331881147678686  0.20165782058587928  0.5301688041629831  1.0000
  H   H2        1.0  0.11106332624892451  0.20523547411357876  0.3845354631889535  1.0000
  H   H3        1.0  0.6927283044465113  0.6330725100579145  0.3453554145296636  1.0000
  H   H4        1.0  0.6908422804355467  0.6553932510523597  0.49004404900573206  1.0000
  H   H5        1.0  0.1737381065172627  0.49044138896493916  0.21700163566903535  1.0000
  H   H6        1.0  0.1895088705041985  0.3424454577560071  0.2075920801861457  1.0000
  H   H7        1.0  0.5612067911157936  0.3031133834687268  0.760708125452055  1.0000
  H   H8        1.0  0.5776051909198615  0.45060114877475854  0.7460490745818475  1.0000
  H   H9        1.0  0.4625999133061212  0.09733854978971833  0.23248676755677877  1.0000
  H   H10       1.0  0.3156976249582542  0.08472792971632263  0.23600765736568258  1.0000
  H   H11       1.0  0.23879692165728972  0.727116679647182  0.6997079107377218  1.0000
  H   H12       1.0  0.381336391508377  0.7123998438696336  0.7413314540706324  1.0000
  H   H13       1.0  0.7700251015632489  0.8207478691818085  0.8374474150718996  1.0000
  H   H14       1.0  0.8747390614352497  0.11242172971044084  0.9230220454698  1.0000
  H   H15       1.0  0.06119374287984411  0.8656139868186873  0.9552696738157067  1.0000
  H   H16       1.0  0.824047797257336  0.9001482774585625  0.1385220615620639  1.0000
  C   C1        1.0  0.021808480333127996  0.24574065358078917  0.5341586136057331  1.0000
  C   C2        1.0  0.08554296115563179  0.2244519652481217  0.501573425880423  1.0000
  C   C3        1.0  0.07471949362304998  0.2274873606815434  0.4245734081788939  1.0000
  C   C4        1.0  0.003872904083770801  0.25076184832587967  0.41011775202216677  1.0000
  C   C5        1.0  0.7907894155624149  0.5666255959048315  0.37036084653816903  1.0000
  C   C6        1.0  0.7283189785178549  0.6069208319351703  0.38600171076429746  1.0000
  C   C7        1.0  0.7269419780827207  0.6186112122836037  0.4615435141375244  1.0000
  C   C8        1.0  0.7885569522890066  0.5860315297097716  0.49302960013163505  1.0000
  C   C9        1.0  0.20957148323531527  0.4921038817204889  0.10455599599725218  1.0000
  C   C10       1.0  0.1957077415813941  0.4608394042240322  0.1712832702722267  1.0000
  C   C11       1.0  0.20515035596157108  0.38268231213098863  0.1669772396098779  1.0000
  C   C12       1.0  0.2246314314595637  0.3659519514322867  0.0970385398781559  1.0000
  C   C13       1.0  0.5110287448301989  0.33027132626899214  0.8644394304195444  1.0000
  C   C14       1.0  0.5395540109212859  0.344952902569169  0.7964390858887  1.0000
  C   C15       1.0  0.5481761963806377  0.42228988128480444  0.7884991002154322  1.0000
  C   C16       1.0  0.5249702294434115  0.45574163820174374  0.8511588048228163  1.0000
  C   C17       1.0  0.46391423530537423  0.003661695940465401  0.3086934395352898  1.0000
  C   C18       1.0  0.4323333704299301  0.060301280049145596  0.2673098645135852  1.0000
  C   C19       1.0  0.3554170782743213  0.05410969663866892  0.2690805106773482  1.0000
  C   C20       1.0  0.33813957097093805  0.9924092962182486  0.3098250172831882  1.0000
  C   C21       1.0  0.2794648440219873  0.8181124568868444  0.6315565922546682  1.0000
  C   C22       1.0  0.2852802369106228  0.756617215856153  0.6771406162781233  1.0000
  C   C23       1.0  0.3596525254473946  0.7486703371757957  0.6990240637357275  1.0000
  C   C24       1.0  0.3998431347900607  0.8049923685845287  0.6675113025979016  1.0000
  C   C25       1.0  0.917353922575735  0.08347498292231856  0.7844502329507675  1.0000
  C   C26       1.0  0.6565186243010571  0.8944683674422012  0.8459133934191099  1.0000
  C   C27       1.0  0.8767262950565567  0.7467699517999765  0.7585244980119157  1.0000
  C   C28       1.0  0.7137364385428243  0.10472109929310852  0.9288290478148723  1.0000
  C   C29       1.0  0.8395307490471922  0.7423931298304113  0.1264763482291684  1.0000
  C   C30       1.0  0.05478101347888751  0.9587018450362452  0.17827162051041506  1.0000
  C   C31       1.0  0.6747142164067979  0.7240371337111783  0.9613810370123302  1.0000
  C   C32       1.0  0.6943982905688985  0.9556954674746692  0.11879532992082892  1.0000
  C   C33       1.0  0.091871126431748  0.09543538235405442  0.9796755124511023  1.0000
  C   C34       1.0  0.0567019408883951  0.8961168438816927  0.8019191382724813  1.0000
  C   C35       1.0  0.026621611314972402  0.7293558461142382  0.9897958377136433  1.0000
  C   C36       1.0  0.8820308966387884  0.1151827393201117  0.1468351078543009  1.0000
  C   C37       1.0  0.14592526916121779  0.8079743948849515  0.6372684368463553  1.0000
  C   C38       1.0  0.2087500391393107  0.8558626484788265  0.631029569898395  1.0000
  C   C39       1.0  0.19914438288641628  0.9296488263934537  0.6563999690716642  1.0000
  C   C40       1.0  0.1468583585548515  0.9445449108051425  0.7085568809255988  1.0000
  C   C41       1.0  0.1019161541745461  0.8859394011760744  0.7363384835837792  1.0000
  C   C42       1.0  0.1008977814775065  0.8171701870857009  0.6966666307812872  1.0000
  C   C43       1.0  0.5991841870365349  0.8284089284961313  0.7357240870201238  1.0000
  C   C44       1.0  0.5902698841454851  0.8725904334803762  0.7979851928767302  1.0000
  C   C45       1.0  0.5198189096933348  0.8967046076052299  0.8150040923629476  1.0000
  C   C46       1.0  0.4591163493812616  0.878047084152492  0.7685654082419902  1.0000
  C   C47       1.0  0.4679214424129796  0.8342691036092165  0.705031454305157  1.0000
  C   C48       1.0  0.5383428883167127  0.8097978173050961  0.6892263378056143  1.0000
  C   C49       1.0  0.25542297601858627  0.9227033301196742  0.22364980587283156  1.0000
  C   C50       1.0  0.26523998349717454  0.9556447847370112  0.29377275562037397  1.0000
  C   C51       1.0  0.2016961043665191  0.970400958512414  0.3324305754902922  1.0000
  C   C52       1.0  0.1312029905025653  0.964235535614215  0.2980642312218365  1.0000
  C   C53       1.0  0.1229538851524481  0.9401595873533214  0.22519846850101996  1.0000
  C   C54       1.0  0.18486171655955994  0.913100752725697  0.1908358357388451  1.0000
  C   C55       1.0  0.6311476772709382  0.03777978584330551  0.2109691154713431  1.0000
  C   C56       1.0  0.6473337114673255  0.9657815983290948  0.1839693318453541  1.0000
  C   C57       1.0  0.6211901939127317  0.9049462400394862  0.224991278927348  1.0000
  C   C58       1.0  0.5684932306916082  0.9146961692527431  0.2781564307430742  1.0000
  C   C59       1.0  0.5406469178378542  0.9859266645529774  0.2938563277676138  1.0000
  C   C60       1.0  0.5864180981761251  0.04610213609661432  0.2707824840348323  1.0000
  C   C61       1.0  0.42624796754932254  0.9685106603732339  0.4725285035195057  1.0000
  C   C62       1.0  0.4027562233573363  0.9282631338536194  0.4089708575910507  1.0000
  C   C63       1.0  0.37025817186920307  0.8574092514409772  0.4186866831857401  1.0000
  C   C64       1.0  0.35847177816336995  0.8299766556716437  0.488874379665809  1.0000
  C   C65       1.0  0.37447634404944097  0.8737889277900593  0.5521582929368377  1.0000
  C   C66       1.0  0.4139598634989241  0.9410401369248406  0.5428475850759041  1.0000
  C   C67       1.0  0.5361299887548866  0.19557257080555968  0.8521412356295812  1.0000
  C   C68       1.0  0.5314021729350742  0.25920911822303344  0.898202720507335  1.0000
  C   C69       1.0  0.5736990659542229  0.2555610292500532  0.9646831611993036  1.0000
  C   C70       1.0  0.6364107165289495  0.21145632402200937  0.9696257217584829  1.0000
  C   C71       1.0  0.6491553680173041  0.1552068486529947  0.9176564122141427  1.0000
  C   C72       1.0  0.5954242260966183  0.14694582382919213  0.8590164273542982  1.0000
  C   C73       1.0  0.6693927221844261  0.58750594877737  0.9326134129997711  1.0000
  C   C74       1.0  0.6321222635361678  0.6552736227037671  0.9367680120648103  1.0000
  C   C75       1.0  0.5566816328227873  0.6573638200456603  0.9151401362971754  1.0000
  C   C76       1.0  0.5209620423796365  0.5935623241572049  0.8848907769505772  1.0000
  C   C77       1.0  0.5574399415379717  0.5260003975737463  0.8810343880553901  1.0000
  C   C78       1.0  0.6319015587893161  0.5231413376151013  0.9071413196506197  1.0000
  C   C79       1.0  0.2055561291860428  0.15999650280615904  0.04434998555555578  1.0000
  C   C80       1.0  0.14217729288712627  0.16128593691046694  0.997303091129062  1.0000
  C   C81       1.0  0.11672871535250808  0.2308915281036051  0.9739601974724151  1.0000
  C   C82       1.0  0.1419111240678959  0.29592729988713995  0.009677166341475604  1.0000
  C   C83       1.0  0.20556253132614444  0.2961407646496356  0.056997877056083696  1.0000
  C   C84       1.0  0.2389945024680813  0.2272388270666781  0.0701214390557112  1.0000
  C   C85       1.0  0.15275458041771373  0.6685064804228279  0.9999894152452741  1.0000
  C   C86       1.0  0.07658983540066801  0.6656087593843482  0.007623414566133103  1.0000
  C   C87       1.0  0.0454572674598666  0.6066202520542705  0.045482339278017  1.0000
  C   C88       1.0  0.08966597396921121  0.5557167301413061  0.0827987941137991  1.0000
  C   C89       1.0  0.1681300252566018  0.5559443460902929  0.0742074439797307  1.0000
  C   C90       1.0  0.1977667463263586  0.6138259543217118  0.0318471730597452  1.0000
  C   C91       1.0  0.370914929835287  0.44906295547684755  0.0496268007607128  1.0000
  C   C92       1.0  0.3002224054707554  0.4357738776188287  0.016122631213008307  1.0000
  C   C93       1.0  0.2974680360122122  0.420378916763653  0.9407770710985021  1.0000
  C   C94       1.0  0.3622869129202968  0.4051134954942556  0.9040835421865766  1.0000
  C   C95       1.0  0.4331062157882002  0.4154643352019037  0.9386067679831244  1.0000
  C   C96       1.0  0.43557856626449615  0.4465977027613734  0.0094519469200094  1.0000
  C   C97       1.0  0.888189332149551  0.6044124426347325  0.2791863961473808  1.0000
  C   C98       1.0  0.8178911757725303  0.5749186335634279  0.2962963291591265  1.0000
  C   C99       1.0  0.7641479745360584  0.5778918161103592  0.2380089752381451  1.0000
  C   C100      1.0  0.7698826126437196  0.6308343940438947  0.18278456360743428  1.0000
  C   C101      1.0  0.8349968107907841  0.6760344441315101  0.1763835300569667  1.0000
  C   C102      1.0  0.8966125556237545  0.6553717050126979  0.22239735949541742  1.0000
  C   C103      1.0  0.80918803834561  0.5871773959619022  0.630880988134969  1.0000
  C   C104      1.0  0.8214891071165198  0.6167000649270307  0.5621480819726655  1.0000
  C   C105      1.0  0.8562499054428016  0.6875727195437238  0.5582868925312923  1.0000
  C   C106      1.0  0.875128388180471  0.7288497666113047  0.6215526693372126  1.0000
  C   C107      1.0  0.859750691042052  0.7002524413474023  0.691239526370012  1.0000
  C   C108      1.0  0.8270997548957268  0.6281003230517757  0.695029063075566  1.0000
  C   C109      1.0  0.8825498763437025  0.13297170251119894  0.2815555677530739  1.0000
  C   C110      1.0  0.9006484473355059  0.1617767501611952  0.21310542084733436  1.0000
  C   C111      1.0  0.9425873596284544  0.22855584514271507  0.21074978935375546  1.0000
  C   C112      1.0  0.9684003895321994  0.2632231285131326  0.2761444269165096  1.0000
  C   C113      1.0  0.9592374318855192  0.2294826264799355  0.34389762562542353  1.0000
  C   C114      1.0  0.9155120654831137  0.16340392472508117  0.3455144982309193  1.0000
  C   C115      1.0  0.9295671852231921  0.20658423275634877  0.7161868913625682  1.0000
  C   C116      1.0  0.9360696945339272  0.12969245922646175  0.7195402560465496  1.0000
  C   C117      1.0  0.9687533700392165  0.09235069603824543  0.6627006614603914  1.0000
  C   C118      1.0  0.002912501732197402  0.13115998231439366  0.6073259270621989  1.0000
  C   C119      1.0  0.9956164862794239  0.21027267167583832  0.6013461749387474  1.0000
  C   C120      1.0  0.9577877218318848  0.24613628403238158  0.6572845668334253  1.0000
  C   C121      1.0  0.9373241750786575  0.47695997916309135  0.4808999425496907  1.0000
  C   C122      1.0  0.8637709096736685  0.48095081074284707  0.4537547427263249  1.0000
  C   C123      1.0  0.8234922622439527  0.41289933432560844  0.44630881209505446  1.0000
  C   C124      1.0  0.8571547023311367  0.3441340008204392  0.4598600602561689  1.0000
  C   C125      1.0  0.9337224021530375  0.33998368597641376  0.47495558397447  1.0000
  C   C126      1.0  0.9732046020160822  0.40829034263332187  0.4844220192548719  1.0000
  Br  Br1       1.0  0.053707498082801  0.7274763105796895  0.7261733024074742  1.0000
  Br  Br2       1.0  0.1334244462385783  0.7272523834746211  0.5702217741300686  1.0000
  Br  Br3       1.0  0.1438259410009763  0.043835326226691514  0.7432789006289937  1.0000
  Br  Br4       1.0  0.26292847886271886  0.005060714679359502  0.6235768297506609  1.0000
  Br  Br5       1.0  0.5475694508041471  0.7506752214784598  0.6042864319723477  1.0000
  Br  Br6       1.0  0.6931463308442715  0.7894148567156382  0.7169777991910067  1.0000
  Br  Br7       1.0  0.3641230264442896  0.910107757499283  0.7921007967930009  1.0000
  Br  Br8       1.0  0.507282867820635  0.9511924084341462  0.9022151701572979  1.0000
  Br  Br9       1.0  0.1738398968757053  0.8693471146090349  0.0964367160330468  1.0000
  Br  Br10      1.0  0.33960190249942457  0.8983756768138565  0.1705094652387373  1.0000
  Br  Br11      1.0  0.04594796391062769  0.9937464354291238  0.3466189026777116  1.0000
  Br  Br12      1.0  0.2154454847553495  0.003707488934928401  0.4306600945092001  1.0000
  Br  Br13      1.0  0.5852904434399804  0.13946150910300767  0.320824853147208  1.0000
  Br  Br14      1.0  0.6585179445383887  0.12635388531775504  0.16235493492195016  1.0000
  Br  Br15      1.0  0.5317408798237651  0.8320428028305644  0.329074963203162  1.0000
  Br  Br16      1.0  0.6562630468126756  0.8081674841814179  0.2080948067866473  1.0000
  Br  Br17      1.0  0.45108042371369095  0.9961120832373708  0.6250737145631717  1.0000
  Br  Br18      1.0  0.4698095031738561  0.06405227474539295  0.4637457474014041  1.0000
  Br  Br19      1.0  0.3281163962937157  0.7296047185487712  0.4985367652465413  1.0000
  Br  Br20      1.0  0.3429789973753401  0.7972448842160774  0.336939283308773  1.0000
  Br  Br21      1.0  0.6038483063765767  0.0763887326142623  0.7827977740248571  1.0000
  Br  Br22      1.0  0.4586652306935264  0.17923113027259072  0.7802336446009406  1.0000
  Br  Br23      1.0  0.7118709886978322  0.24406323052279802  0.0383665352792875  1.0000
  Br  Br24      1.0  0.547949250146921  0.3122679321137626  0.045466341567014  1.0000
  Br  Br25      1.0  0.6804049583099855  0.4308871306169097  0.9118772954651887  1.0000
  Br  Br26      1.0  0.7699401034345144  0.5803491781727601  0.9637800654065742  1.0000
  Br  Br27      1.0  0.4210413153041088  0.5945478476080341  0.8502850155533394  1.0000
  Br  Br28      1.0  0.5028083261620822  0.7452230161105718  0.9259708396045025  1.0000
  Br  Br29      1.0  0.32892670705404464  0.22799999099162002  0.1266413241364006  1.0000
  Br  Br30      1.0  0.24450744838285488  0.0679685344073988  0.07401021720497168  1.0000
  Br  Br31      1.0  0.0774413443184514  0.3772463838522811  0.005786323910037103  1.0000
  Br  Br32      1.0  0.04827528915022579  0.2380874031077553  0.8939279289041266  1.0000
  Br  Br33      1.0  0.3009914397282714  0.6212073898995741  0.0214009201503416  1.0000
  Br  Br34      1.0  0.19276801980476677  0.7489821775615371  0.946565819952724  1.0000
  Br  Br35      1.0  0.0377728192910851  0.4909313104879801  0.1449893508425433  1.0000
  Br  Br36      1.0  0.9407557571400956  0.5991354573092738  0.04285534331758361  1.0000
  Br  Br37      1.0  0.5234976917711905  0.490716156411331  0.0510252066095092  1.0000
  Br  Br38      1.0  0.3806535958085959  0.46990228761490765  0.1504294871565648  1.0000
  Br  Br39      1.0  0.3539175787280939  0.37647161997789175  0.8049781879323488  1.0000
  Br  Br40      1.0  0.2069188610309425  0.4269830822035275  0.8875186754240119  1.0000
  Br  Br41      1.0  0.9934879127615517  0.695530333776759  0.2138818543762966  1.0000
  Br  Br42      1.0  0.9702671607808213  0.5764317748995609  0.3377497935619758  1.0000
  Br  Br43      1.0  0.6831187278288836  0.6429725501782289  0.12373371421268328  1.0000
  Br  Br44      1.0  0.6830505622165505  0.5089178306737381  0.2385485720535669  1.0000
  Br  Br45      1.0  0.8010320074456986  0.5864358246241964  0.7847585977299686  1.0000
  Br  Br46      1.0  0.7658593792539464  0.49044847903215355  0.6332391226333911  1.0000
  Br  Br47      1.0  0.9219969447932286  0.8223281510215372  0.6076736987738016  1.0000
  Br  Br48      1.0  0.8762446736808086  0.7267954673657473  0.4654119859289523  1.0000
  Br  Br49      1.0  0.9103945238241593  0.10721667017784856  0.4317312581115331  1.0000
  Br  Br50      1.0  0.8127039302177934  0.05395290847064163  0.28973325387310916  1.0000
  Br  Br51      1.0  0.0202305915592547  0.35600124701657176  0.276680300660729  1.0000
  Br  Br52      1.0  0.9696045818114383  0.27027962803469313  0.12116402518010008  1.0000
  Br  Br53      1.0  0.9476433343916922  0.35051063448296577  0.6554294826753804  1.0000
  Br  Br54      1.0  0.8807307309674499  0.2545724423025605  0.7926397934137555  1.0000
  Br  Br55      1.0  0.0583745580945418  0.07077452672384513  0.5450093173043129  1.0000
  Br  Br56      1.0  0.9598179414087865  0.9870920726034672  0.6630675520372619  1.0000
  Br  Br57      1.0  0.07677023032783131  0.41003841367817273  0.5000239175547846  1.0000
  Br  Br58      1.0  0.9878981385970603  0.5633252909097878  0.5176295035313601  1.0000
  Br  Br59      1.0  0.7984803743119855  0.2564800362993864  0.46151687309487943  1.0000
  Br  Br60      1.0  0.7210616891545527  0.414620255766721  0.4239594922884393  1.0000
  N   N1        1.0  0.9713436230897797  0.2694492186836328  0.4766440250256352  1.0000
  N   N2        1.0  0.8276767946883937  0.5504209130783623  0.4380621698256277  1.0000
  N   N3        1.0  0.23447580596653947  0.433374480676406  0.058669488522440395  1.0000
  N   N4        1.0  0.498177926881766  0.39998929501243924  0.8980831586001656  1.0000
  N   N5        1.0  0.4046933752793578  0.9616145141047313  0.3379327562658219  1.0000
  N   N6        1.0  0.3518595011894234  0.8468207425613274  0.6219021994971143  1.0000
  O   O1        1.0  0.9697067440907147  0.07677903314711192  0.8315871841595879  1.0000
  O   O2        1.0  0.6615245370323634  0.8707636119558377  0.9097548634924947  1.0000
  O   O3        1.0  0.8751140357932741  0.8172599839363602  0.7560399727702674  1.0000
  O   O4        1.0  0.7378614153047919  0.07240851141521891  0.872327825987277  1.0000
  O   O5        1.0  0.7408405958027657  0.09546032145205884  0.9925767879293872  1.0000
  O   O6        1.0  0.8931969977171121  0.7163611152131893  0.8201390552503867  1.0000
  O   O7        1.0  0.7038123433171747  0.9364123804474433  0.8142924779859939  1.0000
  O   O8        1.0  0.8534181824988067  0.05281402804875771  0.785456797992623  1.0000
  O   O9        1.0  0.7831609568125443  0.952422209260327  0.9666115795514116  1.0000
  O   O10       1.0  0.9112576589648711  0.9362925595913936  0.8687112171028772  1.0000
  O   O11       1.0  0.8013892218706359  0.8492474126637078  0.8724717255360445  1.0000
  O   O12       1.0  0.8773619651320104  0.06050893366305132  0.9370402797062098  1.0000
  O   O13       1.0  0.7860692955578372  0.7565987488111576  0.08195451386356471  1.0000
  O   O14       1.0  0.0478292529684268  0.024367248637965105  0.1629817632451847  1.0000
  O   O15       1.0  0.7359022076413524  0.7384348551227832  0.930558782766539  1.0000
  O   O16       1.0  0.7417066958256483  0.007867567824973798  0.1091289757321547  1.0000
  O   O17       1.0  0.0222291720000811  0.106656292109939  0.9844825496865469  1.0000
  O   O18       1.0  0.015333044512985306  0.8409570731263757  0.8190701575875606  1.0000
  O   O19       1.0  0.017411678131274803  0.7709536396454697  0.0450697231588677  1.0000
  O   O20       1.0  0.8878508951302065  0.04478173841182102  0.1525546892633898  1.0000
  O   O21       1.0  0.9976887972559467  0.7364512723675677  0.9266791866843818  1.0000
  O   O22       1.0  0.8599828287155873  0.14190182288032102  0.0853953898910689  1.0000
  O   O23       1.0  0.6533045199989971  0.7672833286367934  0.010172313145410805  1.0000
  O   O24       1.0  0.0603269002197706  0.9559737477197321  0.8390398612049239  1.0000
  O   O25       1.0  0.11239834171388452  0.03153027764904691  0.9592980379603303  1.0000
  O   O26       1.0  0.6874247528828121  0.8982220810425336  0.0779984255258483  1.0000
  O   O27       1.0  0.8977220787451897  0.7836390064947168  0.1329482830004025  1.0000
  O   O28       1.0  0.011780485674584909  0.9031310868725417  0.1546068786382406  1.0000
  O   O29       1.0  0.9370614701202129  0.9755284035481253  0.0235719586738838  1.0000
  O   O30       1.0  0.8771591113061418  0.8214852567997114  0.9825017605103099  1.0000
  O   O31       1.0  0.013582963788792304  0.8875723362868089  0.9634795039740283  1.0000
  O   O32       1.0  0.8386107085472858  0.9073657799290945  0.08862429852832318  1.0000
