data_image0
_chemical_formula_structural       Mg6H114C138O18
_chemical_formula_sum              "Mg6 H114 C138 O18"
_cell_length_a       6.939287848931233
_cell_length_b       44.26429328583908
_cell_length_c       44.26434771210137
_cell_angle_alpha    119.72896636735491
_cell_angle_beta     92.99634698611749
_cell_angle_gamma    92.99511193500955

_space_group_name_H-M_alt    "P 1"
_space_group_IT_number       1

loop_
  _space_group_symop_operation_xyz
  'x, y, z'

loop_
  _atom_site_type_symbol
  _atom_site_label
  _atom_site_symmetry_multiplicity
  _atom_site_fract_x
  _atom_site_fract_y
  _atom_site_fract_z
  _atom_site_occupancy
  Mg  Mg1       1.0  0.7741702711576793  0.6889833349549832  0.3312630103223882  1.0000
  Mg  Mg2       1.0  0.085200965777851  0.6422947010320287  0.31100024806805504  1.0000
  Mg  Mg3       1.0  0.44296437344117107  0.6687300987431114  0.35770079185877535  1.0000
  Mg  Mg4       1.0  0.32106474420145753  0.3109007770588191  0.6686486760852689  1.0000
  Mg  Mg5       1.0  0.010187731601170865  0.3577504628626967  0.6891166577890432  1.0000
  Mg  Mg6       1.0  0.6523981418994041  0.33136847604398406  0.6422500658018679  1.0000
  H   H1        1.0  0.061997078948124305  0.3703554935454818  0.7710240921811435  1.0000
  H   H2        1.0  0.6915650605152877  0.4006338329786203  0.6296310834179124  1.0000
  H   H3        1.0  0.2908607034983177  0.2289716219070854  0.5993589987120773  1.0000
  H   H4        1.0  0.7821205532336961  0.39669212902067846  0.8722838857398261  1.0000
  H   H5        1.0  0.3854247332932134  0.4756022213928546  0.6033233973555029  1.0000
  H   H6        1.0  0.9097268683118713  0.12772001183761722  0.5244152142948977  1.0000
  H   H7        1.0  0.5528631846740382  0.4438461440815403  0.9809935169657609  1.0000
  H   H8        1.0  0.10887853362534369  0.5371499519870682  0.5561614094216553  1.0000
  H   H9        1.0  0.5717696980273459  0.0190011850934653  0.4628427095066884  1.0000
  H   H10       1.0  0.22819171147357775  0.572239946079634  0.06218584485178995  1.0000
  H   H11       1.0  0.6558733818076375  0.48994489325390594  0.42776247109188875  1.0000
  H   H12       1.0  0.1660158410754915  0.9378258769612768  0.5100507456108758  1.0000
  H   H13       1.0  0.6256252127184396  0.47598281205475956  0.040358951701314524  1.0000
  H   H14       1.0  0.14960460958191393  0.5643725813269072  0.5240205898478509  1.0000
  H   H15       1.0  0.5852624108310566  0.9596501359311137  0.4356212677378794  1.0000
  H   H16       1.0  0.3896824212968753  0.5065042306136719  0.12027381719024538  1.0000
  H   H17       1.0  0.8832604260739602  0.6137591598352402  0.49347937591339547  1.0000
  H   H18       1.0  0.2694972814835451  0.8797285773457516  0.38623915215693944  1.0000
  H   H19       1.0  0.5506726085907516  0.4776694668040306  0.09162456039641846  1.0000
  H   H20       1.0  0.07309150235144546  0.6139352147338782  0.5223108827964326  1.0000
  H   H21       1.0  0.4590987388084358  0.908380177842325  0.3860511198533275  1.0000
  H   H22       1.0  0.2971694161252215  0.46785278370696654  0.08192036808804913  1.0000
  H   H23       1.0  0.8294395231546404  0.614080747830286  0.532145296592674  1.0000
  H   H24       1.0  0.2152777571812976  0.9180714732187311  0.385913022408495  1.0000
  H   H25       1.0  0.05995405482149604  0.6280129489679992  0.1756836345812047  1.0000
  H   H26       1.0  0.43224303443260237  0.547677277892312  0.37198587920084963  1.0000
  H   H27       1.0  0.8843291484598694  0.8243301939864766  0.45233737705922306  1.0000
  H   H28       1.0  0.04891121511759177  0.5012093689118303  0.09634963964363423  1.0000
  H   H29       1.0  0.5475500340416559  0.5951402517685693  0.49880457727015703  1.0000
  H   H30       1.0  0.9524296846062013  0.9036603721298276  0.4048478905014506  1.0000
  H   H31       1.0  0.6787550956995149  0.5193833395987326  0.15366477743153698  1.0000
  H   H32       1.0  0.15926550758066324  0.6342783726630045  0.48060944361286323  1.0000
  H   H33       1.0  0.5250653396947627  0.8463362419602588  0.3657224580414395  1.0000
  H   H34       1.0  0.9021428383403105  0.517886448786143  0.17338266714162384  1.0000
  H   H35       1.0  0.3841901478249028  0.6554914190366857  0.4821139825081391  1.0000
  H   H36       1.0  0.7287571903840515  0.826618597786606  0.3444948783532313  1.0000
  H   H37       1.0  0.8406929693465061  0.4885295747445824  0.12817894995811238  1.0000
  H   H38       1.0  0.35205697028514044  0.639640309138244  0.511464596561112  1.0000
  H   H39       1.0  0.7124723881596325  0.8718276133029548  0.36035653304185206  1.0000
  H   H40       1.0  0.04361303554181715  0.6236630203293457  0.2301142116990463  1.0000
  H   H41       1.0  0.42008936118335066  0.6064764199720044  0.3763364504688767  1.0000
  H   H42       1.0  0.8135333888484196  0.7698671240621093  0.39351464283647886  1.0000
  H   H43       1.0  0.3354752945961437  0.5918800650204047  0.21144456191260022  1.0000
  H   H44       1.0  0.7436830040052412  0.6195229861802929  0.40805637356390184  1.0000
  H   H45       1.0  0.12399187951940857  0.7885329744349718  0.3804535985630083  1.0000
  H   H46       1.0  0.5315774058697755  0.5672876773622519  0.16066560099580585  1.0000
  H   H47       1.0  0.9643265792491535  0.5933432302664413  0.43265644701688905  1.0000
  H   H48       1.0  0.37080344580891034  0.8393208711533973  0.40667185923138766  1.0000
  H   H49       1.0  0.466039979059886  0.6028725669608619  0.12098554648622446  1.0000
  H   H50       1.0  0.8632370325153574  0.5180948705656548  0.3971422762636935  1.0000
  H   H51       1.0  0.3449208030072271  0.8790585047072169  0.48191133732176183  1.0000
  H   H52       1.0  0.36694476830852824  0.6363640873452923  0.15795393886148199  1.0000
  H   H53       1.0  0.7306260620488274  0.5215902001737334  0.36366536805871164  1.0000
  H   H54       1.0  0.20886974514424853  0.8420875448448655  0.4784213928466273  1.0000
  H   H55       1.0  0.27467410518805474  0.624925956715863  0.1151953041819951  1.0000
  H   H56       1.0  0.6497274622331376  0.4902733010376253  0.37509622676505233  1.0000
  H   H57       1.0  0.15930348272235761  0.8848422865020495  0.5097501689190481  1.0000
  H   H58       1.0  0.49173132156838767  0.542784874393682  0.9834960648730801  1.0000
  H   H59       1.0  0.9490252861317356  0.440708647668977  0.45720659899919996  1.0000
  H   H60       1.0  0.5083305979482305  0.0164834702429744  0.5592823951112537  1.0000
  H   H61       1.0  0.5057372836916444  0.5836535127828598  0.02261962451451899  1.0000
  H   H62       1.0  0.9221859268663694  0.4389801231308468  0.4163426892364371  1.0000
  H   H63       1.0  0.4832201214867736  0.9773555029429984  0.5610294132830235  1.0000
  H   H64       1.0  0.27778979502712536  0.5609181784115549  0.0022919421293038805  1.0000
  H   H65       1.0  0.7169633349949861  0.44135499027261443  0.4390652610138447  1.0000
  H   H66       1.0  0.27563374059063495  0.9976840239361092  0.5586116036546616  1.0000
  H   H67       1.0  0.98397740604306  0.5089950962428134  0.9448620129384865  1.0000
  H   H68       1.0  0.47498498013903406  0.43589041623761204  0.4910306107442468  1.0000
  H   H69       1.0  0.0390961707774977  0.055153595972399216  0.5641223259586781  1.0000
  H   H70       1.0  0.7984274049752357  0.562949589177613  0.03129859184339526  1.0000
  H   H71       1.0  0.23557463286492455  0.46836761581533876  0.4370688510333665  1.0000
  H   H72       1.0  0.7672240048407206  0.9687241647163917  0.531660529633321  1.0000
  H   H73       1.0  0.8127221377814281  0.5668548640435774  0.9933385652872178  1.0000
  H   H74       1.0  0.24593126748617075  0.4265110470854552  0.43318186072390574  1.0000
  H   H75       1.0  0.8194571238961075  0.0066946632305046995  0.5735174313375568  1.0000
  H   H76       1.0  0.01615312455723478  0.5562641707872941  0.010803843704330445  1.0000
  H   H77       1.0  0.4599833186596527  0.45455315621627784  0.4437513651991552  1.0000
  H   H78       1.0  0.005459320282163697  0.9892139570427716  0.5454695306595172  1.0000
  H   H79       1.0  0.8711993647667811  0.38818439642390956  0.918557363250308  1.0000
  H   H80       1.0  0.48288051845228347  0.5303740975456036  0.6118086871905108  1.0000
  H   H81       1.0  0.9526363759681473  0.0814297740492052  0.46961548528184255  1.0000
  H   H82       1.0  0.6224444356117189  0.3872628473809883  0.906647504450554  1.0000
  H   H83       1.0  0.23508064378945895  0.5194074536935459  0.6127765744477075  1.0000
  H   H84       1.0  0.715778554568601  0.0933426942629012  0.4805957729053817  1.0000
  H   H85       1.0  0.6950315567764492  0.392818793899501  0.9480911923050218  1.0000
  H   H86       1.0  0.30208803689944114  0.5552815895436751  0.6071930766480025  1.0000
  H   H87       1.0  0.7469091965191981  0.0518987879439692  0.4447029910609076  1.0000
  H   H88       1.0  0.41128423613489673  0.451426912694302  0.8711258819925123  1.0000
  H   H89       1.0  0.9596922488025043  0.41968942484444927  0.5485585123285049  1.0000
  H   H90       1.0  0.5399304575185724  0.1288810252272086  0.5803379220911324  1.0000
  H   H91       1.0  0.2585930393435448  0.4877487277326225  0.9578754286409892  1.0000
  H   H92       1.0  0.7707008495248076  0.47011114795406417  0.5122377353180597  1.0000
  H   H93       1.0  0.3006235622675106  0.04211704193696159  0.529864827078889  1.0000
  H   H94       1.0  0.2711133205853145  0.5101635186077047  0.9341539572444831  1.0000
  H   H95       1.0  0.7608287482004243  0.4239698682664823  0.48981554260514343  1.0000
  H   H96       1.0  0.33688040568775796  0.06583256416404738  0.5760035407278326  1.0000
  H   H97       1.0  0.4508702563412329  0.48216059519928933  0.9311387723196778  1.0000
  H   H98       1.0  0.9685209138166685  0.4489615871227031  0.517832718152029  1.0000
  H   H99       1.0  0.5196110398762103  0.06886160050562039  0.5510176500247895  1.0000
  H   H100      1.0  0.05408872300826315  0.33862001172219175  0.8016329586617844  1.0000
  H   H101      1.0  0.7155280200338581  0.4630102468737364  0.6613657554219616  1.0000
  H   H102      1.0  0.25245262962583576  0.1983583766957011  0.5370052200001042  1.0000
  H   H103      1.0  0.8404969743701401  0.35522940676422365  0.7944810214810049  1.0000
  H   H104      1.0  0.4852535165213824  0.43924515409698023  0.6447769759587559  1.0000
  H   H105      1.0  0.04592856730448599  0.20554494067125256  0.5607641689277828  1.0000
  H   H106      1.0  0.8544634567288015  0.34301658016585895  0.8267979022229996  1.0000
  H   H107      1.0  0.5115097109590963  0.4837750202966261  0.6569678810626132  1.0000
  H   H108      1.0  0.027673559210327905  0.17320778979271984  0.5162328704506793  1.0000
  H   H109      1.0  0.5895486062909756  0.41807590689208496  0.8395616557193579  1.0000
  H   H110      1.0  0.17135803302544875  0.421499919206518  0.5819446706416829  1.0000
  H   H111      1.0  0.7499505276402729  0.1604434310397593  0.5785106501084698  1.0000
  H   H112      1.0  0.7681594035274133  0.4025878796870259  0.7881657333185788  1.0000
  H   H113      1.0  0.3654889807285002  0.3855758626071406  0.5974081864506503  1.0000
  H   H114      1.0  0.9799268461230569  0.21185088577532699  0.6144124531567884  1.0000
  C   C1        1.0  0.3198267784855773  0.3655060947007342  0.745814396560988  1.0000
  C   C2        1.0  0.9543284800975868  0.3803136630119043  0.634518008784113  1.0000
  C   C3        1.0  0.5738734229015846  0.2542063317410381  0.6197079565462007  1.0000
  C   C4        1.0  0.21803578470242257  0.37669298306146  0.7757633042979037  1.0000
  C   C5        1.0  0.8412768243568963  0.3990461834800172  0.6233020149402864  1.0000
  C   C6        1.0  0.44216830153027337  0.22424404081574778  0.6009615548553598  1.0000
  C   C7        1.0  0.30873230408711555  0.39549944546894267  0.8097517691737153  1.0000
  C   C8        1.0  0.9131299675916865  0.4142363444374695  0.6044991680148899  1.0000
  C   C9        1.0  0.49889435853812364  0.1902547580894876  0.5857811790853662  1.0000
  C   C10       1.0  0.19783510867344486  0.40803109493350576  0.840867202463919  1.0000
  C   C11       1.0  0.7896137869083973  0.43279724899018407  0.5919443211803144  1.0000
  C   C12       1.0  0.35673651822421704  0.159146746611512  0.5672098392150532  1.0000
  C   C13       1.0  0.021099107524968  0.3914847611992514  0.8424345264077433  1.0000
  C   C14       1.0  0.6295313202959109  0.4509324453851137  0.6085042088249397  1.0000
  C   C15       1.0  0.17849105118232703  0.1575771522225651  0.5490778815372865  1.0000
  C   C16       1.0  0.9228597434252138  0.40890556395592625  0.8724946979784891  1.0000
  C   C17       1.0  0.5139065911009766  0.46359238226111904  0.591102182360139  1.0000
  C   C18       1.0  0.05023099520759899  0.12751190403545815  0.5364244917510278  1.0000
  C   C19       1.0  0.9943953418879234  0.4404144734274738  0.9025929484854703  1.0000
  C   C20       1.0  0.5538735287048837  0.4621872024187041  0.5595933884479224  1.0000
  C   C21       1.0  0.09168986095863123  0.09740061756546942  0.5378136499031287  1.0000
  C   C22       1.0  0.8786150587655827  0.4574898148648856  0.933234839956562  1.0000
  C   C23       1.0  0.42097118648707976  0.4757590600280324  0.5425323183040406  1.0000
  C   C24       1.0  0.9452746188649641  0.06676472403671602  0.5242355298744245  1.0000
  C   C25       1.0  0.7571809100953859  0.43900647004162613  0.9447073818301492  1.0000
  C   C26       1.0  0.31794050083134806  0.5057006877074315  0.5610112804098648  1.0000
  C   C27       1.0  0.8124081033341498  0.0552787086180473  0.49427415365384075  1.0000
  C   C28       1.0  0.65274146978782  0.4582779151058957  0.9733919470194795  1.0000
  C   C29       1.0  0.19429385505922173  0.5151133882165411  0.5417333512156618  1.0000
  C   C30       1.0  0.6792996023785207  0.026592429701004495  0.4848641216887302  1.0000
  C   C31       1.0  0.6682389776237798  0.49497500270378947  0.9932137132022378  1.0000
  C   C32       1.0  0.17320996651346826  0.4982533130186226  0.5050385341432106  1.0000
  C   C33       1.0  0.6750867041599237  0.006767954746372601  0.501739222547741  1.0000
  C   C34       1.0  0.5477486679228818  0.5116017866018581  0.0230797664339377  1.0000
  C   C35       1.0  0.03604135856438974  0.5114816610484284  0.4884080144765905  1.0000
  C   C36       1.0  0.5247655943801206  0.9769055943009374  0.4885116023889892  1.0000
  C   C37       1.0  0.4341998451506939  0.5395610726922015  0.029664532082158194  1.0000
  C   C38       1.0  0.8944924851212264  0.4901040723106432  0.4604513307265563  1.0000
  C   C39       1.0  0.4046336793258192  0.9703213601259506  0.5098844862661596  1.0000
  C   C40       1.0  0.31794847224708883  0.5510765885729042  0.05753374205336571  1.0000
  C   C41       1.0  0.7667322281878981  0.5064581694564652  0.44893967668332396  1.0000
  C   C42       1.0  0.26039156872960945  0.9424746877074952  0.49353410021497984  1.0000
  C   C43       1.0  0.30572812145452133  0.5365493978417318  0.07928260827842588  1.0000
  C   C44       1.0  0.7690428978150194  0.5427297568791047  0.4634769074393575  1.0000
  C   C45       1.0  0.22631167925619877  0.9207428242592497  0.45726277873629345  1.0000
  C   C46       1.0  0.41656923405954427  0.5081904444510883  0.07233191110133676  1.0000
  C   C47       1.0  0.9082783774183696  0.5641445571599419  0.4918258355015298  1.0000
  C   C48       1.0  0.34418306120848285  0.9276831035243587  0.4358520092329244  1.0000
  C   C49       1.0  0.5352057955116791  0.49706179541858836  0.04492107072208284  1.0000
  C   C50       1.0  0.0380419673607263  0.5478632227069438  0.5029536307306159  1.0000
  C   C51       1.0  0.4902913580032975  0.955080475315498  0.4521318318872648  1.0000
  C   C52       1.0  0.4136686057635472  0.48930504023815047  0.0927821279377525  1.0000
  C   C53       1.0  0.9244329011404064  0.6034731976900575  0.5106845747415678  1.0000
  C   C54       1.0  0.32090904695317596  0.9072205357316108  0.39652002965618055  1.0000
  C   C55       1.0  0.17982665644074566  0.5515179938842181  0.10848259108457371  1.0000
  C   C56       1.0  0.6281760015987885  0.5569593572492195  0.4485024045290944  1.0000
  C   C57       1.0  0.07115345544374928  0.8915490176692417  0.44304163133455915  1.0000
  C   C58       1.0  0.18679375451483082  0.587929543735271  0.1318977562900515  1.0000
  C   C59       1.0  0.5989312369641766  0.5439771150587659  0.41209384315089187  1.0000
  C   C60       1.0  0.05481012071314965  0.8681301541968695  0.45603798642031296  1.0000
  C   C61       1.0  0.05797422236148012  0.5999016847745793  0.15788986653858225  1.0000
  C   C62       1.0  0.4582643302556875  0.5579948468964557  0.40010079565337264  1.0000
  C   C63       1.0  0.9000405462002165  0.8421231103092454  0.4420160680835253  1.0000
  C   C64       1.0  0.9295340778531197  0.5776226863390692  0.1628829986639887  1.0000
  C   C65       1.0  0.35201512634505144  0.5852610192509288  0.4223668315937915  1.0000
  C   C66       1.0  0.7665942548610829  0.8371158986911454  0.4147379008103514  1.0000
  C   C67       1.0  0.932622794163812  0.5411839600747611  0.1412406201215077  1.0000
  C   C68       1.0  0.3913651970714723  0.6000503939498572  0.45881363576594236  1.0000
  C   C69       1.0  0.7913574486973544  0.8587602951192037  0.3999394791297135  1.0000
  C   C70       1.0  0.052436624763785675  0.5293117529127399  0.11394928479161592  1.0000
  C   C71       1.0  0.5229679139225212  0.5846304237099674  0.4707028398459699  1.0000
  C   C72       1.0  0.9383518127311491  0.886072513858835  0.41536315391333295  1.0000
  C   C73       1.0  0.8313728393206716  0.515405500503263  0.14929104728305015  1.0000
  C   C74       1.0  0.31586268890674774  0.6338789598887046  0.4845897251280676  1.0000
  C   C75       1.0  0.6820630250075509  0.850706497158022  0.3661077718741981  1.0000
  C   C76       1.0  0.8039570666338561  0.5929193772890073  0.19200752086229766  1.0000
  C   C77       1.0  0.21115951873510141  0.5990684874820148  0.4070437004503732  1.0000
  C   C78       1.0  0.611929597884128  0.8079834768607557  0.40091791022322837  1.0000
  C   C79       1.0  0.8876195485053415  0.6167551427450206  0.22548057917184394  1.0000
  C   C80       1.0  0.27098893825906606  0.6087388017533115  0.3832299216669599  1.0000
  C   C81       1.0  0.6621771003995961  0.7745077222517551  0.39125474032894675  1.0000
  C   C82       1.0  0.7793113216381472  0.6319073795631951  0.2547110707606777  1.0000
  C   C83       1.0  0.1475710912698247  0.6228202926285675  0.3680732405496345  1.0000
  C   C84       1.0  0.5246318138925545  0.7452747337112839  0.37717200232373943  1.0000
  C   C85       1.0  0.5751762554000592  0.6218304990231472  0.24946975041557812  1.0000
  C   C86       1.0  0.9534706892890413  0.6276343840271466  0.37813809445398766  1.0000
  C   C87       1.0  0.32572199976243615  0.7505062249810167  0.3723299493347058  1.0000
  C   C88       1.0  0.49154502614248224  0.5986611150568989  0.21515761072809889  1.0000
  C   C89       1.0  0.8929601224926887  0.6164489880378383  0.40127222483674546  1.0000
  C   C90       1.0  0.2763441366875057  0.7848228431531793  0.3835188052775464  1.0000
  C   C91       1.0  0.6014387201462484  0.5844727807766076  0.18686906489370614  1.0000
  C   C92       1.0  0.017028835888687827  0.6023404765242616  0.41545648711687033  1.0000
  C   C93       1.0  0.4144868408776788  0.8131188293127494  0.39765530820947265  1.0000
  C   C94       1.0  0.45071104724824806  0.6330309739653045  0.2784476859346725  1.0000
  C   C95       1.0  0.8177656065291288  0.6454204954526971  0.36695499306046747  1.0000
  C   C96       1.0  0.1722749177419162  0.721535784388209  0.35454375135095983  1.0000
  C   C97       1.0  0.33131878348437027  0.6142771658158138  0.1313478225457416  1.0000
  C   C98       1.0  0.7170969762659994  0.5170691033614432  0.3857519834691702  1.0000
  C   C99       1.0  0.19981790129885013  0.868698690747088  0.48295345584608645  1.0000
  C   C100      1.0  0.4277478127307504  0.5574350312662446  0.008242122180902908  1.0000
  C   C101      1.0  0.8703856417266851  0.45080677165915267  0.4425587253508284  1.0000
  C   C102      1.0  0.4196621888621267  0.9917298108092468  0.5491801632714587  1.0000
  C   C103      1.0  0.7996147770788582  0.51331545009959  0.9834804856296915  1.0000
  C   C104      1.0  0.2863838979986753  0.47019483269518486  0.48670901822487184  1.0000
  C   C105      1.0  0.816240723553605  0.016517641964618704  0.5298153729993943  1.0000
  C   C106      1.0  0.8919609695760048  0.49419264912116756  0.9530496819069187  1.0000
  C   C107      1.0  0.39775069946333025  0.4588799154341956  0.5058301418182866  1.0000
  C   C108      1.0  0.9389098269649027  0.046954093483186896  0.541125341059228  1.0000
  C   C109      1.0  0.8578451554429664  0.5519251486328045  0.005868278363777843  1.0000
  C   C110      1.0  0.30603012357371984  0.45396823636942674  0.4481018377800369  1.0000
  C   C111      1.0  0.8520933303513731  0.994154279929795  0.5460601194335271  1.0000
  C   C112      1.0  0.7362746962507102  0.39978726466373615  0.9285572268834843  1.0000
  C   C113      1.0  0.3362965089683101  0.5287780845166097  0.6002279809476436  1.0000
  C   C114      1.0  0.8076811039642495  0.07142939784964851  0.4712068822046761  1.0000
  C   C115      1.0  0.1816583195319978  0.4546681996758933  0.902147491677873  1.0000
  C   C116      1.0  0.7267872096762958  0.447460675516254  0.5453197307457601  1.0000
  C   C117      1.0  0.2793399921439885  0.09785142103289961  0.5525320968444447  1.0000
  C   C118      1.0  0.2723698154405199  0.43881197812513045  0.8712749696959039  1.0000
  C   C119      1.0  0.8333389658223924  0.4324353845856308  0.5611679019580152  1.0000
  C   C120      1.0  0.4008355375990648  0.12873819623999339  0.5675861129029374  1.0000
  C   C121      1.0  0.29532016909402614  0.48525708699951753  0.9330016232875737  1.0000
  C   C122      1.0  0.8098641379620163  0.44772417943923415  0.5147279088218826  1.0000
  C   C123      1.0  0.3621980843336843  0.06699201065890749  0.5522505501481874  1.0000
  C   C124      1.0  0.9389757478825446  0.35526534615554073  0.8147831451013376  1.0000
  C   C125      1.0  0.5837102981238687  0.45950369047942974  0.6447296099811199  1.0000
  C   C126      1.0  0.124109855804555  0.1852332574755664  0.5405084004017624  1.0000
  C   C127      1.0  0.5114135035573284  0.40417122204134165  0.8137231910263554  1.0000
  C   C128      1.0  0.10716463719808192  0.409567483817689  0.5958531522124418  1.0000
  C   C129      1.0  0.6976352922032092  0.18628287873809768  0.5904483141182695  1.0000
  C   C130      1.0  0.613216001402357  0.39492677157023337  0.7848564451467227  1.0000
  C   C131      1.0  0.2182515083449559  0.3899387233984939  0.6050843121175549  1.0000
  C   C132      1.0  0.8282729664705785  0.21515482510785944  0.6100621945460605  1.0000
  C   C133      1.0  0.5236776471975021  0.37545524111163087  0.7505020620111226  1.0000
  C   C134      1.0  0.14824403025878752  0.3750612409242891  0.6245711119121183  1.0000
  C   C135      1.0  0.773063725260549  0.24951295478405908  0.6249461245428523  1.0000
  C   C136      1.0  0.644103422298727  0.3666700223453604  0.7213401443961375  1.0000
  C   C137      1.0  0.2774163233588069  0.35468121187840745  0.6333470066290376  1.0000
  C   C138      1.0  0.9225952578578147  0.2786803405734375  0.6453262549860952  1.0000
  O   O1        1.0  0.27248139757140416  0.6216707135648746  0.27336049658357103  1.0000
  O   O2        1.0  0.6508541626776037  0.6516771890602442  0.3783066221415795  1.0000
  O   O3        1.0  0.9991145611263761  0.7266276543475527  0.34827794968172304  1.0000
  O   O4        1.0  0.5280142914985788  0.6546719670275962  0.30976621197875437  1.0000
  O   O5        1.0  0.8733894601197535  0.6551111715048705  0.34532123476191867  1.0000
  O   O6        1.0  0.21826721032469718  0.6902174591388075  0.34486450306488353  1.0000
  O   O7        1.0  0.8760633038219369  0.6543451025779135  0.2857764098964638  1.0000
  O   O8        1.0  0.2218960910285759  0.6314525054876299  0.3456415252223622  1.0000
  O   O9        1.0  0.5903956564748825  0.7142155364421754  0.36854958130852117  1.0000
  O   O10       1.0  0.8224668203651859  0.37802688561447434  0.7266395605908685  1.0000
  O   O11       1.0  0.44442269295537074  0.3486112918193172  0.6219882443954179  1.0000
  O   O12       1.0  0.0956712257664307  0.2734050940873871  0.651408255066386  1.0000
  O   O13       1.0  0.5635679881198143  0.3466987585556751  0.6898968064050238  1.0000
  O   O14       1.0  0.21686969360992947  0.3432246865805694  0.6533306449455552  1.0000
  O   O15       1.0  0.8734450136003176  0.3101162046527151  0.6567728694737058  1.0000
  O   O16       1.0  0.2192115813613995  0.3462362084897777  0.7144018160421342  1.0000
  O   O17       1.0  0.8729336319366608  0.3681889343591962  0.6537983562051013  1.0000
  O   O18       1.0  0.5045901610154929  0.2856097978807384  0.6318290535820525  1.0000
