data_image0
_chemical_formula_structural       Dy4Ag2H32C44N6O32
_chemical_formula_sum              "Dy4 Ag2 H32 C44 N6 O32"
_cell_length_a       11.263911701181605
_cell_length_b       11.448446646676164
_cell_length_c       12.516255655974634
_cell_angle_alpha    102.79892320258298
_cell_angle_beta     114.79358458123653
_cell_angle_gamma    102.32417682154995

_space_group_name_H-M_alt    "P 1"
_space_group_IT_number       1

loop_
  _space_group_symop_operation_xyz
  'x, y, z'

loop_
  _atom_site_type_symbol
  _atom_site_label
  _atom_site_symmetry_multiplicity
  _atom_site_fract_x
  _atom_site_fract_y
  _atom_site_fract_z
  _atom_site_occupancy
  Dy  Dy1       1.0  0.7472084359759279  0.49331788690598444  0.8854794936343637  1.0000
  Dy  Dy2       1.0  0.2527942113717927  0.5066843124063425  0.11452222060268723  1.0000
  Dy  Dy3       1.0  0.23824037119128147  0.47916148624146626  0.6044404215372409  1.0000
  Dy  Dy4       1.0  0.761757394258652  0.5208407300326955  0.3955586493929105  1.0000
  Ag  Ag1       1.0  0.9114465917701153  0.2687940398474994  0.18707636195398447  1.0000
  Ag  Ag2       1.0  0.08855631562282437  0.7312062618778726  0.8129226621784158  1.0000
  H   H1        1.0  0.42012925122212164  0.07398359405783592  0.468495209827907  1.0000
  H   H2        1.0  0.5798703207279772  0.9260233814801925  0.531507923995271  1.0000
  H   H3        1.0  0.3295786471129105  0.8421387683100222  0.32943299799519826  1.0000
  H   H4        1.0  0.6704238621213036  0.1578682094151631  0.6705696501206546  1.0000
  H   H5        1.0  0.9239580530084555  0.8731901265208748  0.1508285572281735  1.0000
  H   H6        1.0  0.0760406769161577  0.1268120682900786  0.8491740702201157  1.0000
  H   H7        1.0  0.029975365560105202  0.10323535512326032  0.2971572926157151  1.0000
  H   H8        1.0  0.9700223904912377  0.8967668468844536  0.7028441687276725  1.0000
  H   H9        1.0  0.45671014896945655  0.9953516662192928  0.2550113285427217  1.0000
  H   H10       1.0  0.5432859386952413  0.004640998111696601  0.7449851360288378  1.0000
  H   H11       1.0  0.6271522127714632  0.21976637405225574  0.3659304341252252  1.0000
  H   H12       1.0  0.37284033318131554  0.7802272595053666  0.6340640909358869  1.0000
  H   H13       1.0  0.9570728040590241  0.0635859348947676  0.44928777186655117  1.0000
  H   H14       1.0  0.042925196373225616  0.9364143457485811  0.5507149833942365  1.0000
  H   H15       1.0  0.7725072425251653  0.8429123556795305  0.33700596494539065  1.0000
  H   H16       1.0  0.22749393957210637  0.15708600578660992  0.6629975985254647  1.0000
  H   H17       1.0  0.9192630811890864  0.0684446797692289  0.9818350670399666  1.0000
  H   H18       1.0  0.08073678578520567  0.931552767475985  0.018161418199156367  1.0000
  H   H19       1.0  0.7884333005457406  0.8378947503823255  0.841784108386669  1.0000
  H   H20       1.0  0.2115639985899094  0.16210365889276093  0.15821160344691523  1.0000
  H   H21       1.0  0.5123790905633498  0.8302698736116627  0.998253565838269  1.0000
  H   H22       1.0  0.4876221071982344  0.1697285116318952  0.0017460136105356384  1.0000
  H   H23       1.0  0.6586026504888238  0.05819436076607331  0.13763531617509267  1.0000
  H   H24       1.0  0.34139988745863553  0.941804976742276  0.8623649670701782  1.0000
  H   H25       1.0  0.44718728529251434  0.35633720547419057  0.5937256515534913  1.0000
  H   H26       1.0  0.5528120615913394  0.6436640369449195  0.4062762138949337  1.0000
  H   H27       1.0  0.29803410139435016  0.2489648493707861  0.4929273644120401  1.0000
  H   H28       1.0  0.7019636577898609  0.7510373573924057  0.5070733001269332  1.0000
  H   H29       1.0  0.4989359939807229  0.24347383040442597  0.7869126800980126  1.0000
  H   H30       1.0  0.5010661807869851  0.7565245523978633  0.21308726865129304  1.0000
  H   H31       1.0  0.4609100209180355  0.3658892873784795  0.8218275785143092  1.0000
  H   H32       1.0  0.5390938603481672  0.6341110071501391  0.17817261172299936  1.0000
  C   C1        1.0  0.31059906589334924  0.025582290787092204  0.39682789033697935  1.0000
  C   C2        1.0  0.6894020937563994  0.9744237204068471  0.6031764443956434  1.0000
  C   C3        1.0  0.26122927454265726  0.8983184200680444  0.31990552666852784  1.0000
  C   C4        1.0  0.7387732315586959  0.10168855290164913  0.6800979182517325  1.0000
  C   C5        1.0  0.12056599209106632  0.8423677395266158  0.22775326448471148  1.0000
  C   C6        1.0  0.8794354244710333  0.15763636932489794  0.7722491769476748  1.0000
  C   C7        1.0  0.03435890232911735  0.91547163449323  0.22030520858954375  1.0000
  C   C8        1.0  0.9656427617467499  0.08453055774940312  0.7796977299558349  1.0000
  C   C9        1.0  0.09289328703419389  0.0419562344604927  0.3014176821214178  1.0000
  C   C10       1.0  0.9071071462560524  0.9580478673213194  0.6985859836192888  1.0000
  C   C11       1.0  0.06428343407315404  0.7077557350109346  0.13517380808328036  1.0000
  C   C12       1.0  0.935726656745274  0.2922454757987155  0.8648329164750237  1.0000
  C   C13       1.0  0.5687995043723575  0.014106596429876099  0.3002566531589892  1.0000
  C   C14       1.0  0.4311973033861135  0.9858879678022774  0.6997420740133081  1.0000
  C   C15       1.0  0.6631540047869819  0.1387734777922702  0.36119561500881764  1.0000
  C   C16       1.0  0.336839261259577  0.8612220556665094  0.6388011726530395  1.0000
  C   C17       1.0  0.80577544244003  0.15778640898236063  0.415260506318333  1.0000
  C   C18       1.0  0.1942195269721623  0.8422110314472705  0.5847373196359414  1.0000
  C   C19       1.0  0.8466592343153607  0.050595669956301506  0.40759491394501174  1.0000
  C   C20       1.0  0.15333938620899795  0.9494036630506811  0.5924062825114902  1.0000
  C   C21       1.0  0.7450208264927201  0.9291966279091074  0.34534805011630004  1.0000
  C   C22       1.0  0.2549793817312818  0.0708017407537938  0.6546543472496466  1.0000
  C   C23       1.0  0.9126231027988251  0.2907869118067907  0.47537585527435067  1.0000
  C   C24       1.0  0.08736613590687631  0.7092134383628166  0.5246156082378449  1.0000
  C   C25       1.0  0.8290991673956469  0.011971864825589804  0.9831184496038858  1.0000
  C   C26       1.0  0.17090069331292307  0.9880255729086614  0.016879629244058954  1.0000
  C   C27       1.0  0.7557810186586594  0.8849581194316088  0.9048571916657194  1.0000
  C   C28       1.0  0.2442159141643785  0.11503933038193281  0.095138982476314  1.0000
  C   C29       1.0  0.6386552613119179  0.8181896877250381  0.9081288990116577  1.0000
  C   C30       1.0  0.36134167151111285  0.18180776208850355  0.09186727513037604  1.0000
  C   C31       1.0  0.6019153668971243  0.8805318571190672  0.992397972549739  1.0000
  C   C32       1.0  0.39808620030993314  0.1194674923415135  0.0076003477862087625  1.0000
  C   C33       1.0  0.6827735652759515  0.006401522243997701  0.06978627424231829  1.0000
  C   C34       1.0  0.3172293358512661  0.9935987699704115  0.9302143434989034  1.0000
  C   C35       1.0  0.552058730207669  0.6828145617061879  0.8216830147076806  1.0000
  C   C36       1.0  0.4479363580033677  0.31718575479386873  0.1783138518251519  1.0000
  C   C37       1.0  0.8127575971197629  0.5561098961447968  0.6744837831150008  1.0000
  C   C38       1.0  0.18724655045738806  0.4438885103078434  0.32551212340883506  1.0000
  C   C39       1.0  0.6734372923980203  0.4434976102151468  0.5916501899711264  1.0000
  C   C40       1.0  0.3265661194210381  0.5564988725589189  0.40834743797402956  1.0000
  C   C41       1.0  0.799561420758856  0.47013728981831804  0.14897884674295633  1.0000
  C   C42       1.0  0.20043853368565578  0.5298629859424935  0.8510246471188269  1.0000
  C   C43       1.0  0.7145502149982048  0.5604276923931552  0.1328810276178983  1.0000
  C   C44       1.0  0.28545791867509956  0.43957351854355403  0.8671257551438247  1.0000
  N   N1        1.0  0.22876453168213828  0.09693500958243112  0.3874807866193777  1.0000
  N   N2        1.0  0.771234313908458  0.9030700565434702  0.612521678211884  1.0000
  N   N3        1.0  0.6079499961893832  0.9110225557182972  0.2920607538398912  1.0000
  N   N4        1.0  0.3920485149347215  0.08897391548471491  0.7079390116248234  1.0000
  N   N5        1.0  0.7941170076594092  0.07226943291954063  0.065016541112925  1.0000
  N   N6        1.0  0.2058845595476484  0.927729916541047  0.9349817792230226  1.0000
  O   O1        1.0  0.9401118388315765  0.668970749158163  0.04679297787691883  1.0000
  O   O2        1.0  0.05989253119643931  0.33102570264173187  0.9532098001951967  1.0000
  O   O3        1.0  0.1472061599671761  0.6458583379627784  0.15356037132045236  1.0000
  O   O4        1.0  0.8528059686833771  0.3541533747406121  0.8464500908968233  1.0000
  O   O5        1.0  0.040198947559005695  0.3020910769599184  0.5352264830962739  1.0000
  O   O6        1.0  0.9597976027696119  0.69791307263084  0.4647693310071617  1.0000
  O   O7        1.0  0.8680701098376743  0.3814722278238634  0.46023985864903233  1.0000
  O   O8        1.0  0.1319178205282583  0.6185195346196083  0.5397477393917072  1.0000
  O   O9        1.0  0.421455919383618  0.6546727198079553  0.773890623188244  1.0000
  O   O10       1.0  0.5785376905280231  0.345331422840168  0.22610647342692405  1.0000
  O   O11       1.0  0.614329386014994  0.6083271365062688  0.8010926767520417  1.0000
  O   O12       1.0  0.38566058270055953  0.39166744481477184  0.19890346531677497  1.0000
  O   O13       1.0  0.8641319864785402  0.5927730137322841  0.7924787144305084  1.0000
  O   O14       1.0  0.13586991571250454  0.4072272476350208  0.20752711164108462  1.0000
  O   O15       1.0  0.8713657905520619  0.6066933074325505  0.6203639470995198  1.0000
  O   O16       1.0  0.12863858574167605  0.393303153878314  0.37963723736377375  1.0000
  O   O17       1.0  0.6228833841628755  0.39183750992231126  0.650462029417227  1.0000
  O   O18       1.0  0.3771215028227175  0.6081551419482096  0.34953616524999387  1.0000
  O   O19       1.0  0.6234738755427074  0.4125138354011997  0.4744274120095043  1.0000
  O   O20       1.0  0.3765301151237566  0.5874893209314039  0.5255742092195989  1.0000
  O   O21       1.0  0.8412607213488599  0.44561601500379316  0.25013811791339435  1.0000
  O   O22       1.0  0.15874058581297845  0.5543852320437423  0.7498628925272044  1.0000
  O   O23       1.0  0.8198285140495328  0.42267326689334084  0.05976030018470624  1.0000
  O   O24       1.0  0.18017231739943182  0.5773241588886651  0.9402397415725476  1.0000
  O   O25       1.0  0.6877562421807896  0.5985083027212923  0.2212703720826852  1.0000
  O   O26       1.0  0.3122481335954602  0.401495841605751  0.7787260060115032  1.0000
  O   O27       1.0  0.6767732376584447  0.5868561818521556  0.034231978241990514  1.0000
  O   O28       1.0  0.32323076867233175  0.41314699825785806  0.9657656589650615  1.0000
  O   O29       1.0  0.34522896239054296  0.3356292759416207  0.5618194916303169  1.0000
  O   O30       1.0  0.6547717184134711  0.6643729092313182  0.43818467122338944  1.0000
  O   O31       1.0  0.543062238972169  0.33842890624729444  0.8362042492773369  1.0000
  O   O32       1.0  0.45694091280167715  0.661569474113719  0.16379606877246283  1.0000
