data_image0
_chemical_formula_structural       Zn4B4H80C76N24O8
_chemical_formula_sum              "Zn4 B4 H80 C76 N24 O8"
_cell_length_a       15.593393846815674
_cell_length_b       15.593645711996315
_cell_length_c       15.593655759970533
_cell_angle_alpha    62.31662055350931
_cell_angle_beta     74.47221319997756
_cell_angle_gamma    105.52783326799167

_space_group_name_H-M_alt    "P 1"
_space_group_IT_number       1

loop_
  _space_group_symop_operation_xyz
  'x, y, z'

loop_
  _atom_site_type_symbol
  _atom_site_label
  _atom_site_symmetry_multiplicity
  _atom_site_fract_x
  _atom_site_fract_y
  _atom_site_fract_z
  _atom_site_occupancy
  Zn  Zn1       1.0  0.04171903467215541  0.38301111284391  0.888887244917079  1.0000
  Zn  Zn2       1.0  0.7281025141756317  0.6587096290066583  0.3830137057925357  1.0000
  Zn  Zn3       1.0  0.9582804952536819  0.06939759697844777  0.658704541111419  1.0000
  Zn  Zn4       1.0  0.27189672937622317  0.8888889624775588  0.0693932078549152  1.0000
  B   B1        1.0  0.9517216772329605  0.052168525169492067  0.3105055963719823  1.0000
  B   B2        1.0  0.6373266488400018  0.8995516153591864  0.05216837958236192  1.0000
  B   B3        1.0  0.04827905630409646  0.7377720094924103  0.8995521058806587  1.0000
  B   B4        1.0  0.36267693384643  0.31050764247763857  0.7377699633185699  1.0000
  H   H1        1.0  0.7804446090453752  0.031206122880497865  0.26790083898757183  1.0000
  H   H2        1.0  0.7008952916055051  0.7492376332549073  0.03121076174371488  1.0000
  H   H3        1.0  0.21955439589054035  0.9516491038825025  0.7492410166278985  1.0000
  H   H4        1.0  0.2991122836695439  0.2679059377446791  0.9516463759749386  1.0000
  H   H5        1.0  0.7193873834409386  0.26317951276529783  0.8409049874643347  1.0000
  H   H6        1.0  0.8959104983025269  0.45621339310690706  0.26318315895365874  1.0000
  H   H7        1.0  0.28060948265186875  0.4397014057205766  0.45620891409070213  1.0000
  H   H8        1.0  0.10408970220689903  0.8409063841261145  0.4396968598156548  1.0000
  H   H9        1.0  0.8649224341579895  0.18560636729809946  0.3420500305064422  1.0000
  H   H10       1.0  0.4723400064775872  0.6793169237206129  0.18560640729357655  1.0000
  H   H11       1.0  0.13507661125470363  0.793018706412987  0.6793197680215142  1.0000
  H   H12       1.0  0.5276632191857757  0.3420549380361067  0.7930230182676824  1.0000
  H   H13       1.0  0.9630560321908631  0.35677767954745576  0.4939872798459179  1.0000
  H   H14       1.0  0.14924168199921434  0.6062793366617996  0.35677400011832816  1.0000
  H   H15       1.0  0.03694390398437271  0.5429547843938849  0.6062834235673266  1.0000
  H   H16       1.0  0.8507633461052891  0.4939870145907434  0.5429562918329864  1.0000
  H   H17       1.0  0.6579015387599226  0.23081578791644108  0.7196346430030403  1.0000
  H   H18       1.0  0.049547659841884674  0.4270891318861914  0.23081644814158142  1.0000
  H   H19       1.0  0.34209731302847496  0.622459243367203  0.42708784903713576  1.0000
  H   H20       1.0  0.9504539246744985  0.7196366414963508  0.6224561588216988  1.0000
  H   H21       1.0  0.7821430091992383  0.27880104996572197  0.5457103734244201  1.0000
  H   H22       1.0  0.1754911832827871  0.5033427570074025  0.27880064909096086  1.0000
  H   H23       1.0  0.21785692185289918  0.672140094953555  0.503348912105352  1.0000
  H   H24       1.0  0.8245119135280704  0.5457121625446749  0.6721421359149885  1.0000
  H   H25       1.0  0.8253524732820451  0.20231145258907196  0.05971817247244366  1.0000
  H   H26       1.0  0.7379690397044669  0.6230391484690969  0.20232004137862683  1.0000
  H   H27       1.0  0.17464609987841576  0.11492633096752768  0.6230451354231406  1.0000
  H   H28       1.0  0.2620273025618829  0.05972058628418611  0.11492399370433763  1.0000
  H   H29       1.0  0.6550174792645791  0.7133208639049188  0.5590836701894587  1.0000
  H   H30       1.0  0.727596084983489  0.9417016035208692  0.7133177523317825  1.0000
  H   H31       1.0  0.3449852267372363  0.7859025800248391  0.941700314082297  1.0000
  H   H32       1.0  0.2724032698709351  0.5590825080660694  0.7858993920664189  1.0000
  H   H33       1.0  0.1589516817974044  0.3509296566147669  0.015388174966972118  1.0000
  H   H34       1.0  0.6336814255574551  0.8080212057261917  0.35093094992372176  1.0000
  H   H35       1.0  0.8410491325342095  0.8256640994238327  0.8080194177122306  1.0000
  H   H36       1.0  0.3663147470918631  0.015385665147235317  0.8256647679903821  1.0000
  H   H37       1.0  0.14878741470608497  0.22261716616629462  0.11145812090401817  1.0000
  H   H38       1.0  0.6659254662713536  0.9261686148633786  0.22261666894079488  1.0000
  H   H39       1.0  0.8512122393567338  0.7397581738697954  0.9261706150176822  1.0000
  H   H40       1.0  0.3340697063953044  0.11145532692648177  0.7397575972719892  1.0000
  H   H41       1.0  0.11443634809003098  0.29927876498121725  0.1561230034588945  1.0000
  H   H42       1.0  0.5445967612002961  0.8151567376924335  0.2992774050616945  1.0000
  H   H43       1.0  0.8855632934162685  0.7294428632190775  0.8151557768098028  1.0000
  H   H44       1.0  0.4553998509353291  0.15611989241120466  0.7294434794953945  1.0000
  H   H45       1.0  0.0012471586008331267  0.9810408916515243  0.18989364269506115  1.0000
  H   H46       1.0  0.8290704254161269  0.020209497412558557  0.9810347414063117  1.0000
  H   H47       1.0  0.9987489456940182  0.8088565981155044  0.020203832926810442  1.0000
  H   H48       1.0  0.17093449072469719  0.18989521440740023  0.8088604973300592  1.0000
  H   H49       1.0  0.9669069589888581  0.8400676682477696  0.24918628956128652  1.0000
  H   H50       1.0  0.9107496013418698  0.12684193488497933  0.8400620464194121  1.0000
  H   H51       1.0  0.03309193821070964  0.7839053479790508  0.1268365071140848  1.0000
  H   H52       1.0  0.08925234424349772  0.24918707226185421  0.7839073836579615  1.0000
  H   H53       1.0  0.9053346210270163  0.9011974453534253  0.17821740462564126  1.0000
  H   H54       1.0  0.9205926071513911  0.004141580451268126  0.9011932907381565  1.0000
  H   H55       1.0  0.09466046289592357  0.9164457572215382  0.004136960235676647  1.0000
  H   H56       1.0  0.07941242403305887  0.17821814884540288  0.9164490112112347  1.0000
  H   H57       1.0  0.8646372524761715  0.18922289293286826  0.5185410953563334  1.0000
  H   H58       1.0  0.2922291546802782  0.675418159873722  0.18922121812350656  1.0000
  H   H59       1.0  0.13535932920468235  0.6168098865452264  0.6754227331051511  1.0000
  H   H60       1.0  0.7077705052008981  0.5185513864340336  0.616816265234576  1.0000
  H   H61       1.0  0.7705600590802462  0.9117598381100225  0.5173627021198399  1.0000
  H   H62       1.0  0.570876436067472  0.8587992276454912  0.9117600308902212  1.0000
  H   H63       1.0  0.22944486348826118  0.7120768294588161  0.8588037501620605  1.0000
  H   H64       1.0  0.4291252707177335  0.5173648098742165  0.7120733520579137  1.0000
  H   H65       1.0  0.036101942334845115  0.9699210019124748  0.55667913911671  1.0000
  H   H66       1.0  0.4734007012703002  0.06618146960761351  0.9699209317187112  1.0000
  H   H67       1.0  0.9638971129878371  0.4072201723367785  0.0661824431947478  1.0000
  H   H68       1.0  0.5265979644388494  0.5566754563039427  0.4072219476641478  1.0000
  H   H69       1.0  0.08839645933977634  0.01968672697896777  0.41640857244246393  1.0000
  H   H70       1.0  0.5639046281651119  0.06870545105631015  0.019689836990643455  1.0000
  H   H71       1.0  0.9116024812412391  0.4951990113447523  0.06870761222923237  1.0000
  H   H72       1.0  0.4360940405962453  0.416403313296641  0.49520059792501303  1.0000
  H   H73       1.0  0.970701750493518  0.9029367043090774  0.510007022863462  1.0000
  H   H74       1.0  0.5870571772882583  0.06776430246684129  0.902937786414185  1.0000
  H   H75       1.0  0.02929856424486132  0.5192935514034644  0.06776528701202975  1.0000
  H   H76       1.0  0.41294073922134783  0.5100024208666838  0.5192941328756363  1.0000
  H   H77       1.0  0.03379093356002726  0.05701383916128579  0.2772252621554401  1.0000
  H   H78       1.0  0.6657642528766133  0.9767760657443816  0.057010767291636275  1.0000
  H   H79       1.0  0.9662105616394712  0.6889857690664344  0.9767747240587  1.0000
  H   H80       1.0  0.334239163646295  0.2772263433248059  0.6889837546753412  1.0000
  C   C1        1.0  0.9447635194169876  0.35360720174884364  0.6374817629524968  1.0000
  C   C2        1.0  0.008912575213152316  0.5911537503660328  0.35360993307703126  1.0000
  C   C3        1.0  0.05523663072106909  0.4177534706452307  0.5911551859337435  1.0000
  C   C4        1.0  0.991091678245567  0.6374797559084229  0.4177556987254719  1.0000
  C   C5        1.0  0.8735834258214152  0.32543450678629426  0.7364923311951517  1.0000
  C   C6        1.0  0.938071080604004  0.5481469475016709  0.32544102607744935  1.0000
  C   C7        1.0  0.1264158454229545  0.38992433510508556  0.5481447092258023  1.0000
  C   C8        1.0  0.061930504395128635  0.736488102114862  0.38992284790572995  1.0000
  C   C9        1.0  0.8495220412447537  0.10416545757099263  0.20238219580947722  1.0000
  C   C10       1.0  0.6934519749199737  0.7453541066643512  0.10417259919124419  1.0000
  C   C11       1.0  0.15047550909162055  0.948092610571969  0.7453571715101435  1.0000
  C   C12       1.0  0.30654980033867213  0.2023850800448344  0.9480896454802449  1.0000
  C   C13       1.0  0.009647142256831422  0.22235033242253627  0.1181616636980678  1.0000
  C   C14       1.0  0.6594892569952576  0.787296843844068  0.22235218304614784  1.0000
  C   C15       1.0  0.9903515652052878  0.8721912543189991  0.7872973794145819  1.0000
  C   C16       1.0  0.34050998540386257  0.11816071006936113  0.8721898756792967  1.0000
  C   C17       1.0  0.771184652574611  0.28151699317319884  0.7647932781427825  1.0000
  C   C18       1.0  0.9536870767290396  0.48966857766025373  0.2815215283432694  1.0000
  C   C19       1.0  0.22881383086799195  0.46402017348482627  0.48966760450383623  1.0000
  C   C20       1.0  0.04631353022062951  0.7647920882929496  0.4640169696984912  1.0000
  C   C21       1.0  0.8935732391274556  0.14846333940430165  0.3979418292746928  1.0000
  C   C22       1.0  0.45359037071767  0.7451098576460496  0.14846566634000166  1.0000
  C   C23       1.0  0.10642567949094676  0.7084774341062925  0.7451138332065242  1.0000
  C   C24       1.0  0.5464113771767811  0.3979471496198456  0.7084807449711974  1.0000
  C   C25       1.0  0.909041724214312  0.3334577500385479  0.5715801806899703  1.0000
  C   C26       1.0  0.09496690130983156  0.5755862555666199  0.33345643748582887  1.0000
  C   C27       1.0  0.09095634080764375  0.5193741761526668  0.5755904276542267  1.0000
  C   C28       1.0  0.9050367895334263  0.5715774286941129  0.5193771542743947  1.0000
  C   C29       1.0  0.8620068756606116  0.87037685455919  0.3357537731451714  1.0000
  C   C30       1.0  0.7938723333582514  0.9916298912316392  0.8703739403386238  1.0000
  C   C31       1.0  0.13799418585610818  0.8022420365758054  0.9916269541200079  1.0000
  C   C32       1.0  0.2061305690058077  0.33575414488119293  0.8022403482101977  1.0000
  C   C33       1.0  0.737498896092795  0.26333707977892823  0.6977895062343222  1.0000
  C   C34       1.0  0.03887431954344575  0.47416519392076845  0.2633373283793787  1.0000
  C   C35       1.0  0.26250130354821966  0.5647080407826123  0.47416564249417803  1.0000
  C   C36       1.0  0.9611271493074584  0.6977909097998349  0.5647051874613568  1.0000
  C   C37       1.0  0.9014454684434982  0.33829678916610845  0.8166636989196121  1.0000
  C   C38       1.0  0.8450408372842517  0.5631556682950318  0.3382997650298308  1.0000
  C   C39       1.0  0.09855118270752432  0.2818886967410351  0.563150183924158  1.0000
  C   C40       1.0  0.15495914823888074  0.8166615624137848  0.2818839440224961  1.0000
  C   C41       1.0  0.8072313863647338  0.2892398708006284  0.6006991478285857  1.0000
  C   C42       1.0  0.11006395579926939  0.5179937605444495  0.28923829957980013  1.0000
  C   C43       1.0  0.1927679586482754  0.5920634220566187  0.517999150462451  1.0000
  C   C44       1.0  0.8899383513169286  0.600700896872475  0.5920649625118627  1.0000
  C   C45       1.0  0.8717183810170753  0.1873344776590573  0.1004530339938013  1.0000
  C   C46       1.0  0.7122097043083642  0.6843833583522142  0.18734071509102532  1.0000
  C   C47       1.0  0.12827875092173704  0.02782335782820402  0.6843889542395445  1.0000
  C   C48       1.0  0.28778656061106733  0.10045562033273112  0.02782369024738071  1.0000
  C   C49       1.0  0.11368662497222459  0.2770014588249979  0.09880640937132058  1.0000
  C   C50       1.0  0.6241926528451813  0.8366851294994787  0.27700156955502553  1.0000
  C   C51       1.0  0.8863118093706887  0.7875081885471503  0.8366853964447575  1.0000
  C   C52       1.0  0.3758047137896979  0.09880384657463265  0.7875082656809199  1.0000
  C   C53       1.0  0.9385081056221763  0.9003956508599701  0.2324257090412087  1.0000
  C   C54       1.0  0.8671838567508697  0.03811514590535134  0.9003902752879329  1.0000
  C   C55       1.0  0.06148884334418631  0.8290646354043147  0.03811021596126804  1.0000
  C   C56       1.0  0.13282073630262672  0.2324264761799811  0.8290671292115945  1.0000
  C   C57       1.0  0.8932802702256167  0.14958237091217072  0.48531181977742954  1.0000
  C   C58       1.0  0.36510073991020436  0.7436987287279423  0.14958280921138106  1.0000
  C   C59       1.0  0.10671816614385683  0.6213994321537656  0.7437038975441438  1.0000
  C   C60       1.0  0.6348984985681554  0.4853191522167323  0.6214050391368673  1.0000
  C   C61       1.0  0.7262927584145659  0.780612916311256  0.4906097515088277  1.0000
  C   C62       1.0  0.7287780288796881  0.9456824889044739  0.780609864033451  1.0000
  C   C63       1.0  0.2737103598396048  0.7831015956568239  0.9456817302656261  1.0000
  C   C64       1.0  0.2712220080694222  0.4906108304502083  0.7830971656878419  1.0000
  C   C65       1.0  0.782988573186323  0.8778014720034124  0.471119277731219  1.0000
  C   C66       1.0  0.6510788439126926  0.9051852372760935  0.8778012646134883  1.0000
  C   C67       1.0  0.21701622858282132  0.7458941481922852  0.9051866512606282  1.0000
  C   C68       1.0  0.34892391173622156  0.47112077308685935  0.7458903845177574  1.0000
  C   C69       1.0  0.9679702054781459  0.05294759043850675  0.4700808586871688  1.0000
  C   C70       1.0  0.47697074122128674  0.9150221575693395  0.05294734080319321  1.0000
  C   C71       1.0  0.03202839871148906  0.5619457953276665  0.9150258551245115  1.0000
  C   C72       1.0  0.52303067941903  0.4700815964925909  0.5619486601255091  1.0000
  C   C73       1.0  0.0185505309247913  0.9825469107226467  0.4896285844457181  1.0000
  C   C74       1.0  0.5278251095683615  0.036002657788330374  0.9825476633015243  1.0000
  C   C75       1.0  0.9814484026630269  0.49182173599940887  0.03600485410593266  1.0000
  C   C76       1.0  0.47217389034234  0.4896245621365978  0.491823895798376  1.0000
  N   N1        1.0  0.936925130307678  0.12644699444892643  0.21290801386077615  1.0000
  N   N2        1.0  0.6606446359986152  0.8104769743143693  0.12644969976996365  1.0000
  N   N3        1.0  0.06307446986636481  0.8501641423951725  0.8104774734655961  1.0000
  N   N4        1.0  0.33935664780157987  0.21290988223478996  0.8501626791670914  1.0000
  N   N5        1.0  0.7759226970798706  0.7770725761768772  0.4054138247214853  1.0000
  N   N6        1.0  0.8175158018550235  0.9988521130250377  0.7770696383543192  1.0000
  N   N7        1.0  0.22407746825091107  0.8186672224393874  0.9988495530647797  1.0000
  N   N8        1.0  0.18248541788344835  0.40541251929488437  0.8186662104590783  1.0000
  N   N9        1.0  0.9722278032651062  0.26075925138881945  0.048278170916731124  1.0000
  N   N10       1.0  0.6909624818402591  0.7114683248422724  0.2607638636041541  1.0000
  N   N11       1.0  0.027769583956533936  0.9794941126000725  0.7114711821818741  1.0000
  N   N12       1.0  0.30903386332052907  0.04827731718872021  0.979492402605928  1.0000
  N   N13       1.0  0.8686057997714871  0.9339309377329672  0.37322021847432996  1.0000
  N   N14       1.0  0.6928506462283509  0.9346714919944649  0.9339311556835096  1.0000
  N   N15       1.0  0.13139677210127582  0.7581761997518583  0.9346724852064271  1.0000
  N   N16       1.0  0.30715216769743847  0.3732208281159117  0.7581725626272302  1.0000
  N   N17       1.0  0.9410082578782591  0.08748156158946324  0.38864097879123705  1.0000
  N   N18       1.0  0.5238762072804731  0.8535262427172939  0.08748264793043604  1.0000
  N   N19       1.0  0.05899120856077645  0.6703471939624704  0.853528544027611  1.0000
  N   N20       1.0  0.47612648862585166  0.38864183089020093  0.6703491571044181  1.0000
  N   N21       1.0  0.9396327285706435  0.08940630715284215  0.5301063373372727  1.0000
  N   N22       1.0  0.38048513113657395  0.8502280047200089  0.0894047568121649  1.0000
  N   N23       1.0  0.060365023504090114  0.5302540504074997  0.8502328897222923  1.0000
  N   N24       1.0  0.6195152670367251  0.5301126123426914  0.5302593009173789  1.0000
  O   O1        1.0  0.9840216052873387  0.3330905554015332  0.8141043597623038  1.0000
  O   O2        1.0  0.8528104824111651  0.6509378252895531  0.33309011857200926  1.0000
  O   O3        1.0  0.015976912353970377  0.2018763313022731  0.6509311858553916  1.0000
  O   O4        1.0  0.14718928665698877  0.8141004708234123  0.20187246869420503  1.0000
  O   O5        1.0  0.8467186419317585  0.350489786635386  0.8803454272329604  1.0000
  O   O6        1.0  0.7691632377179758  0.49624051723173324  0.3504891217508899  1.0000
  O   O7        1.0  0.15327877665145445  0.2729279627855803  0.4962355652795552  1.0000
  O   O8        1.0  0.23083718773350625  0.8803521735676085  0.2729205078743177  1.0000
