data_image0
_chemical_formula_structural       Al2H6C18S3O12
_chemical_formula_sum              "Al2 H6 C18 S3 O12"
_cell_length_a       3.9748224598333
_cell_length_b       16.14730351605059
_cell_length_c       16.147639543541395
_cell_angle_alpha    119.99968815160733
_cell_angle_beta     90.00349506824163
_cell_angle_gamma    89.9981962355616

_space_group_name_H-M_alt    "P 1"
_space_group_IT_number       1

loop_
  _space_group_symop_operation_xyz
  'x, y, z'

loop_
  _atom_site_type_symbol
  _atom_site_label
  _atom_site_symmetry_multiplicity
  _atom_site_fract_x
  _atom_site_fract_y
  _atom_site_fract_z
  _atom_site_occupancy
  Al  Al1       1.0  0.05386837568254071  0.499995674700017  0.4999955797798493  1.0000
  Al  Al2       1.0  0.9460796921432292  0.16665912418910983  0.8333372287368663  1.0000
  H   H1        1.0  0.45294486820968427  0.10201184738161126  0.5296723256857093  1.0000
  H   H2        1.0  0.5473336913910316  0.19634072580662124  0.4353555020773001  1.0000
  H   H3        1.0  0.45275552253777107  0.9276514924385567  0.8979721016148617  1.0000
  H   H4        1.0  0.5470924223666032  0.7389952340109431  0.8036578087614644  1.0000
  H   H5        1.0  0.45294436354515716  0.47032674029257043  0.07233075565912366  1.0000
  H   H6        1.0  0.5472702795808075  0.5646465428492391  0.26098144779446397  1.0000
  C   C1        1.0  0.5514278823771619  0.45521843112044275  0.35655058814845125  1.0000
  C   C2        1.0  0.5514498005849616  0.40134071132828103  0.5447990914161381  1.0000
  C   C3        1.0  0.5514532368111417  0.6434599048203677  0.5986631255892476  1.0000
  C   C4        1.0  0.4484950903064231  0.2114599076040236  0.7346774237255431  1.0000
  C   C5        1.0  0.44857200773795114  0.2653278672620729  0.9767885718310013  1.0000
  C   C6        1.0  0.44851914441115787  0.023211249823411564  0.78854398112221  1.0000
  C   C7        1.0  0.46226073848785637  0.23966639884724122  0.6605652638720302  1.0000
  C   C8        1.0  0.4730705979727717  0.1793052363079042  0.5626469064914303  1.0000
  C   C9        1.0  0.5270710647788591  0.22931759197395954  0.5126618024286316  1.0000
  C   C10       1.0  0.5376889932288051  0.32723588481709964  0.5730185583158517  1.0000
  C   C11       1.0  0.4623669394549736  0.9208975387616789  0.7603205447435357  1.0000
  C   C12       1.0  0.4729736079535628  0.883331692219727  0.8206779855540632  1.0000
  C   C13       1.0  0.5269662809827126  0.7833425840577135  0.7706956911171546  1.0000
  C   C14       1.0  0.5377218148731233  0.7457831585431763  0.6727708636560905  1.0000
  C   C15       1.0  0.4623353236903044  0.3394295433517769  0.07910228392781704  1.0000
  C   C16       1.0  0.47306865984743507  0.43735404757109814  0.11666594265820149  1.0000
  C   C17       1.0  0.5270777254540634  0.48735168021224246  0.21665329182307153  1.0000
  C   C18       1.0  0.5376931138463236  0.4269915466182823  0.2542253429280024  1.0000
  S   S1        1.0  0.4999238856162479  0.3574952020513465  0.6908403071090491  1.0000
  S   S2        1.0  0.5001030910461212  0.8333459102450363  0.6425019584372437  1.0000
  S   S3        1.0  0.4999901319797218  0.3091685591943474  0.16666143577050016  1.0000
  O   O1        1.0  0.790046476903413  0.593827311184626  0.604441990550747  1.0000
  O   O2        1.0  0.790019703003864  0.5106317747053524  0.40617055577286726  1.0000
  O   O3        1.0  0.7900250093691881  0.39555220567201843  0.4893835743094074  1.0000
  O   O4        1.0  0.32156538948105867  0.6118227180790754  0.5347553664100246  1.0000
  O   O5        1.0  0.32155508816460815  0.4652393627827181  0.5770601327320365  1.0000
  O   O6        1.0  0.3215620266046741  0.42294272047931264  0.38816930223916307  1.0000
  O   O7        1.0  0.20994861446041568  0.07282410652355516  0.8439544779339628  1.0000
  O   O8        1.0  0.20989362827563707  0.1560474858428834  0.7288864262606796  1.0000
  O   O9        1.0  0.20991328650057284  0.2711116992627965  0.9271708491502582  1.0000
  O   O10       1.0  0.6783698660204536  0.054847377666313105  0.7562742515033208  1.0000
  O   O11       1.0  0.6784164824917199  0.20141468037852678  0.9451551484017886  1.0000
  O   O12       1.0  0.6783451594226975  0.2437228652796861  0.798587383801909  1.0000
