data_image0
_chemical_formula_structural       Cd2P2H20C6N2O14
_chemical_formula_sum              "Cd2 P2 H20 C6 N2 O14"
_cell_length_a       4.908125012595
_cell_length_b       5.49262776284962
_cell_length_c       16.890618213680263
_cell_angle_alpha    93.16451718900548
_cell_angle_beta     90.01991054924281
_cell_angle_gamma    116.28455611017372

_space_group_name_H-M_alt    "P 1"
_space_group_IT_number       1

loop_
  _space_group_symop_operation_xyz
  'x, y, z'

loop_
  _atom_site_type_symbol
  _atom_site_label
  _atom_site_symmetry_multiplicity
  _atom_site_fract_x
  _atom_site_fract_y
  _atom_site_fract_z
  _atom_site_occupancy
  Cd  Cd1       1.0  0.03601199011673357  0.9242446651987208  0.3240487830129908  1.0000
  Cd  Cd2       1.0  0.8924771215919945  0.9252020580660272  0.8233386532285395  1.0000
  P   P1        1.0  0.7516510179780554  0.3202607248796454  0.4167904061798424  1.0000
  P   P2        1.0  0.5728073688670959  0.3215737316702558  0.9158924068045664  1.0000
  H   H1        1.0  0.5283063685882186  0.4687525563238993  0.2842583841009017  1.0000
  H   H2        1.0  0.9299187645996482  0.4641588919057469  0.7818614146917398  1.0000
  H   H3        1.0  0.9763725962172314  0.12657565027135584  0.18680982014313943  1.0000
  H   H4        1.0  0.1430415546921253  0.1275379110002604  0.6857740197499781  1.0000
  H   H5        1.0  0.6799635280447376  0.7828077908484586  0.4856693700991031  1.0000
  H   H6        1.0  0.09864864554227644  0.7810368098509032  0.9860033198230981  1.0000
  H   H7        1.0  0.3260721452676592  0.5646043225806707  0.4577934422568859  1.0000
  H   H8        1.0  0.24299371812999482  0.5682517951775808  0.9578272638979756  1.0000
  H   H9        1.0  0.36138650281247203  0.19160371824212058  0.5169721618853699  1.0000
  H   H10       1.0  0.8401504947580207  0.18833888015844016  0.0138117984213295  1.0000
  H   H11       1.0  0.7279945506466418  0.41770406345317207  0.5592103868739217  1.0000
  H   H12       1.0  0.6926426311897984  0.40658074547047135  0.058669912885648  1.0000
  H   H13       1.0  0.23227072493092038  0.48024757273388735  0.6045490993297378  1.0000
  H   H14       1.0  0.2480016376407974  0.4798168014579502  0.1046915540118647  1.0000
  H   H15       1.0  0.2467932723207937  0.7789685607999104  0.5658332674614002  1.0000
  H   H16       1.0  0.5295080769924212  0.7800050681298033  0.0666491712135837  1.0000
  H   H17       1.0  0.7621211190847391  0.20384606545141548  0.24270511861536903  1.0000
  H   H18       1.0  0.434572592064292  0.18837051893613926  0.7393721827827094  1.0000
  H   H19       1.0  0.48468939960108076  0.6948265799500606  0.2347046708554501  1.0000
  H   H20       1.0  0.20469431898438728  0.6885597800010003  0.7337669835184784  1.0000
  C   C1        1.0  0.573967603767862  0.3731673783083025  0.50757940789385  1.0000
  C   C2        1.0  0.8036671185020622  0.3689573213686899  0.0062267457277443  1.0000
  C   C3        1.0  0.3824262149163502  0.6702783566150502  0.578121940540946  1.0000
  C   C4        1.0  0.2859089461191431  0.6699470667373788  0.0784022689709758  1.0000
  C   C5        1.0  0.6431451346168515  0.8475725794914553  0.6359433980073064  1.0000
  C   C6        1.0  0.19779465571759405  0.845165642769942  0.1360883742006678  1.0000
  N   N1        1.0  0.4946500691222937  0.6046362663845528  0.5020586798564254  1.0000
  N   N2        1.0  0.110665343794885  0.6042019952722555  0.0019231825834538044  1.0000
  O   O1        1.0  0.508118720006337  0.24717077133239226  0.3506569754919013  1.0000
  O   O2        1.0  0.7412926422585642  0.24851227050442062  0.8490939474849455  1.0000
  O   O3        1.0  0.02921639531557221  0.5953899837287225  0.4051455483620288  1.0000
  O   O4        1.0  0.5721287882328879  0.5990425529896796  0.9054649375855917  1.0000
  O   O5        1.0  0.8441006488961306  0.093570202351394  0.4312298274683855  1.0000
  O   O6        1.0  0.2547874754594872  0.09641769320604959  0.9302692860956868  1.0000
  O   O7        1.0  0.565218149236621  0.8760627601722532  0.7065312094295848  1.0000
  O   O8        1.0  0.30607740911376163  0.8759632049027034  0.2065623628552373  1.0000
  O   O9        1.0  0.9091090862594199  0.9571789218090527  0.6099730005109478  1.0000
  O   O10       1.0  0.03656366682676568  0.9512564688960484  0.11019560454970191  1.0000
  O   O11       1.0  0.6305923810691921  0.6218050210911625  0.24932023315654564  1.0000
  O   O12       1.0  0.985165707840288  0.6179673333028077  0.7467323680758966  1.0000
  O   O13       1.0  0.9712681721921114  0.22829579624430346  0.2376534988820467  1.0000
  O   O14       1.0  0.25647308140261066  0.22442024773820898  0.7364469270081244  1.0000
