data_image0
_chemical_formula_structural       Ag12H28C52N8O24
_chemical_formula_sum              "Ag12 H28 C52 N8 O24"
_cell_length_a       10.111366124363615
_cell_length_b       10.11137750819475
_cell_length_c       15.401371445319775
_cell_angle_alpha    92.26021884537462
_cell_angle_beta     92.26025590462575
_cell_angle_gamma    109.08702737993204

_space_group_name_H-M_alt    "P 1"
_space_group_IT_number       1

loop_
  _space_group_symop_operation_xyz
  'x, y, z'

loop_
  _atom_site_type_symbol
  _atom_site_label
  _atom_site_symmetry_multiplicity
  _atom_site_fract_x
  _atom_site_fract_y
  _atom_site_fract_z
  _atom_site_occupancy
  Ag  Ag1       1.0  0.05567394588667439  0.5478099820814393  0.9246698611356835  1.0000
  Ag  Ag2       1.0  0.45218988181850517  0.9443266799876046  0.5753288516558825  1.0000
  Ag  Ag3       1.0  0.944328939844226  0.45219059627406477  0.0753286375318254  1.0000
  Ag  Ag4       1.0  0.547810041682645  0.05567389196120591  0.4246702371587929  1.0000
  Ag  Ag5       1.0  0.9113956752406979  0.2483928172920287  0.8554890511695277  1.0000
  Ag  Ag6       1.0  0.7516056766760998  0.08860498506469838  0.6445105245375303  1.0000
  Ag  Ag7       1.0  0.08860456304700651  0.7516056651966921  0.1445100022403949  1.0000
  Ag  Ag8       1.0  0.24839259124532745  0.9113934976063692  0.3554891389389354  1.0000
  Ag  Ag9       1.0  0.8087485712302469  0.4411693524535919  0.7824463183946264  1.0000
  Ag  Ag10      1.0  0.5588297648534849  0.19124895888954538  0.7175531458737154  1.0000
  Ag  Ag11      1.0  0.19125037376809934  0.5588312262666051  0.2175534004059756  1.0000
  Ag  Ag12      1.0  0.44117048679488147  0.8087495369596027  0.2824465574415171  1.0000
  H   H1        1.0  0.42391181126338756  0.39328412810424146  0.9288250572435004  1.0000
  H   H2        1.0  0.6067156798892198  0.5760910466013626  0.5711757557754282  1.0000
  H   H3        1.0  0.5760888056447585  0.6067154424903265  0.0711759735444204  1.0000
  H   H4        1.0  0.3932846222323719  0.42391061345328757  0.4288253104172455  1.0000
  H   H5        1.0  0.588545702313546  0.10933509403714231  0.06149263920205069  1.0000
  H   H6        1.0  0.8906646806847861  0.41145715347262524  0.43850686542939604  1.0000
  H   H7        1.0  0.41145753531647256  0.8906665457033612  0.9385065370328362  1.0000
  H   H8        1.0  0.10933458949135401  0.5885444599117094  0.5614922311279714  1.0000
  H   H9        1.0  0.22397550823443876  0.18992348085017596  0.1520114769443452  1.0000
  H   H10       1.0  0.8100753825658702  0.7760263996027277  0.3479885474055351  1.0000
  H   H11       1.0  0.7760280976247742  0.8100761228719336  0.8479902635070289  1.0000
  H   H12       1.0  0.18992257056900294  0.22397417252842902  0.6520111514756834  1.0000
  H   H13       1.0  0.3225021330453401  0.5604250426314223  0.8170027490941365  1.0000
  H   H14       1.0  0.43957377045100543  0.6774970398451645  0.6829985640934169  1.0000
  H   H15       1.0  0.6774968282830828  0.43957243868539564  0.1829988563555744  1.0000
  H   H16       1.0  0.5604258278723508  0.3225024974395083  0.3170011469645004  1.0000
  H   H17       1.0  0.06328799056580454  0.8042913800133181  0.8126768917134372  1.0000
  H   H18       1.0  0.1957102456380327  0.9367128645971762  0.6873237571697713  1.0000
  H   H19       1.0  0.9367123115557946  0.19571028004133242  0.1873241744792367  1.0000
  H   H20       1.0  0.8042880356440494  0.06328563143431862  0.3126765562120113  1.0000
  H   H21       1.0  0.8143417263026081  0.0984698387394545  0.025562345988831198  1.0000
  H   H22       1.0  0.9015281803728857  0.18565953877826052  0.4744364917196293  1.0000
  H   H23       1.0  0.18566050907269735  0.9015286702877675  0.9744373971651612  1.0000
  H   H24       1.0  0.09847077798611545  0.8143410533023642  0.5255638769862898  1.0000
  H   H25       1.0  0.13300121046418673  0.0716580605321511  0.871989742909669  1.0000
  H   H26       1.0  0.9283409695632941  0.8670017392893782  0.6280104134375932  1.0000
  H   H27       1.0  0.867000998189795  0.9283404217742232  0.1280087004337034  1.0000
  H   H28       1.0  0.07165698357157883  0.13299883284177844  0.3719892854436324  1.0000
  C   C1        1.0  0.20084523539539847  0.36649419948705747  0.027344996642654  1.0000
  C   C2        1.0  0.6335039346867716  0.7991553550488248  0.4726549453529856  1.0000
  C   C3        1.0  0.7991560348377577  0.6335043296719789  0.9726560264025821  1.0000
  C   C4        1.0  0.3664940184481011  0.20084521708233183  0.5273447535282401  1.0000
  C   C5        1.0  0.6394811281973033  0.2909388928321163  0.9300222042517349  1.0000
  C   C6        1.0  0.7090617163602105  0.36052207100311057  0.569979347036849  1.0000
  C   C7        1.0  0.3605211309299108  0.7090627536797668  0.0699776019690788  1.0000
  C   C8        1.0  0.2909389242998374  0.6394806370761046  0.4300217468179  1.0000
  C   C9        1.0  0.39155687659097543  0.0369814578958128  0.18448970154939562  1.0000
  C   C10       1.0  0.9630145608583476  0.6084413659859607  0.3155096102005288  1.0000
  C   C11       1.0  0.6084433513054819  0.9630139004686739  0.8155099386990159  1.0000
  C   C12       1.0  0.0369803766041343  0.3915591462968067  0.6844880792066237  1.0000
  C   C13       1.0  0.3118367859397894  0.29917489236497363  0.0392348308802326  1.0000
  C   C14       1.0  0.7008242461986856  0.6881654001274243  0.4607645506897668  1.0000
  C   C15       1.0  0.6881658280559578  0.7008247047680956  0.960766889651758  1.0000
  C   C16       1.0  0.29917403211398863  0.3118362066678769  0.5392345259482169  1.0000
  C   C17       1.0  0.4189024481726308  0.32274458522063304  0.9810417145464426  1.0000
  C   C18       1.0  0.6772553302650836  0.5811015374121882  0.5189597861128945  1.0000
  C   C19       1.0  0.5810998510365623  0.6772571013725255  0.0189600413903008  1.0000
  C   C20       1.0  0.3227429614082524  0.4189000827435408  0.4810399404303993  1.0000
  C   C21       1.0  0.5205919814220507  0.25717816027551516  0.9898256482710722  1.0000
  C   C22       1.0  0.7428215980302398  0.4794112474814014  0.5101745701895766  1.0000
  C   C23       1.0  0.47940993916670044  0.7428224382118032  0.010174130287673196  1.0000
  C   C24       1.0  0.25717802404502527  0.5205914272879256  0.4898252039351618  1.0000
  C   C25       1.0  0.51144298581211  0.16280272764748097  0.0553429914527754  1.0000
  C   C26       1.0  0.8371974469158588  0.4885594350850084  0.444658433446854  1.0000
  C   C27       1.0  0.4885612704026984  0.8371989454029105  0.9446575045121081  1.0000
  C   C28       1.0  0.16280183662094322  0.5114421916597537  0.5553413130158233  1.0000
  C   C29       1.0  0.4040100551340943  0.1376213426024577  0.11355257557444531  1.0000
  C   C30       1.0  0.8623777426815878  0.5959905427867015  0.38644812475062207  1.0000
  C   C31       1.0  0.5959935373644643  0.8623782477592243  0.8864485149716188  1.0000
  C   C32       1.0  0.13761821336569116  0.4040100028059541  0.6135508843865339  1.0000
  C   C33       1.0  0.306309483040927  0.20838905176938033  0.1061429371608824  1.0000
  C   C34       1.0  0.7916090602995142  0.6936897762003298  0.39385703263991456  1.0000
  C   C35       1.0  0.693694122818286  0.7916105519527292  0.8938588032904917  1.0000
  C   C36       1.0  0.20838790097189266  0.3063107893417865  0.6061426463219277  1.0000
  C   C37       1.0  0.29261075304467005  0.6426328143546912  0.7862837139186639  1.0000
  C   C38       1.0  0.3573673642551328  0.7073889977138917  0.7137169653591259  1.0000
  C   C39       1.0  0.7073891867865569  0.35736466019074  0.2137172615451206  1.0000
  C   C40       1.0  0.6426322474288853  0.2926105529312011  0.2862833956041015  1.0000
  C   C41       1.0  0.1507961536853771  0.779992654631734  0.7848226882748435  1.0000
  C   C42       1.0  0.22000948831029635  0.8492048268174769  0.7151779966768714  1.0000
  C   C43       1.0  0.8492034579986338  0.22000689601336626  0.21517767268838384  1.0000
  C   C44       1.0  0.7799897952265057  0.15079679992728495  0.2848217497857987  1.0000
  C   C45       1.0  0.8974659579634193  0.053975566941908  0.0148352482496321  1.0000
  C   C46       1.0  0.9460218469380308  0.10253538623587839  0.4851642548705115  1.0000
  C   C47       1.0  0.10253691737622722  0.9460218872893691  0.9851638372563656  1.0000
  C   C48       1.0  0.05397611955751104  0.8974651992557058  0.5148360939160241  1.0000
  C   C49       1.0  0.0726431220370216  0.03851918549203501  0.9290757704892842  1.0000
  C   C50       1.0  0.9614794747545831  0.9273580677222524  0.5709243377077725  1.0000
  C   C51       1.0  0.927358774799821  0.9614782755106291  0.0709239450026402  1.0000
  C   C52       1.0  0.038518478380297004  0.07264250440891118  0.429075361173453  1.0000
  N   N1        1.0  0.18873432550106636  0.678295845219708  0.8207844127400676  1.0000
  N   N2        1.0  0.3217036328212118  0.8112665115814794  0.6792155958468912  1.0000
  N   N3        1.0  0.8112662780464178  0.32170371201443265  0.1792159681425431  1.0000
  N   N4        1.0  0.6782956269636883  0.1887319776786285  0.32078408754895804  1.0000
  N   N5        1.0  0.9701482314840677  0.09232071558173523  0.9437206592057521  1.0000
  N   N6        1.0  0.9076765797541526  0.029852420474490802  0.5562789370900418  1.0000
  N   N7        1.0  0.0298530120277719  0.9076777868564535  0.056279064028864005  1.0000
  N   N8        1.0  0.09232038151725434  0.9701481450676329  0.4437207418718002  1.0000
  O   O1        1.0  0.7385670667846825  0.24310311213142916  0.9472478035762819  1.0000
  O   O2        1.0  0.7568969725889901  0.2614350317397225  0.5527530964674766  1.0000
  O   O3        1.0  0.26143387530125756  0.7568974931272765  0.05275260496839711  1.0000
  O   O4        1.0  0.24310167098346377  0.7385676498009915  0.44724730764319537  1.0000
  O   O5        1.0  0.20143969453984317  0.4304767644334576  0.9578693746233569  1.0000
  O   O6        1.0  0.569519678485854  0.7985618380243553  0.5421286933409633  1.0000
  O   O7        1.0  0.7985608852557322  0.5695196553160216  0.0421309431924328  1.0000
  O   O8        1.0  0.4304776079633542  0.2014397621819057  0.4578703633776371  1.0000
  O   O9        1.0  0.11274795940909853  0.35104750599912654  0.0866339068006212  1.0000
  O   O10       1.0  0.6489497176235944  0.8872515399153755  0.413365330783023  1.0000
  O   O11       1.0  0.8872516285230108  0.6489489071613193  0.9133663910957849  1.0000
  O   O12       1.0  0.3510485606890796  0.11275006687991859  0.5866337458549609  1.0000
  O   O13       1.0  0.6318726259621953  0.3674828343604659  0.8669141570249508  1.0000
  O   O14       1.0  0.6325164320888917  0.3681279329521772  0.633085998559558  1.0000
  O   O15       1.0  0.36812795086397193  0.6325166961528198  0.1330849240470329  1.0000
  O   O16       1.0  0.36748385667203826  0.6318737137420528  0.3669144177278056  1.0000
  O   O17       1.0  0.4819979833948694  0.9740080301839953  0.1898210113939243  1.0000
  O   O18       1.0  0.02599336362936102  0.518006003321659  0.31017899552821865  1.0000
  O   O19       1.0  0.5180069127842942  0.0259925880704444  0.8101788269229644  1.0000
  O   O20       1.0  0.974007274061279  0.4819998155213697  0.6898208615827244  1.0000
  O   O21       1.0  0.2901727899180457  0.02389209231159131  0.2339686881729435  1.0000
  O   O22       1.0  0.976102351045924  0.7098246149391445  0.26602925833139324  1.0000
  O   O23       1.0  0.7098260942158279  0.9761021980788701  0.7660302545887063  1.0000
  O   O24       1.0  0.0238922211567854  0.2901748225982034  0.7339671036030638  1.0000
