data_image0
_chemical_formula_structural       Hg2H16C20S4I4N4
_chemical_formula_sum              "Hg2 H16 C20 S4 I4 N4"
_cell_length_a       8.615374486570332
_cell_length_b       8.615437260295995
_cell_length_c       10.995256099949623
_cell_angle_alpha    85.4839389904004
_cell_angle_beta     85.48412597091063
_cell_angle_gamma    72.13090275169128

_space_group_name_H-M_alt    "P 1"
_space_group_IT_number       1

loop_
  _space_group_symop_operation_xyz
  'x, y, z'

loop_
  _atom_site_type_symbol
  _atom_site_label
  _atom_site_symmetry_multiplicity
  _atom_site_fract_x
  _atom_site_fract_y
  _atom_site_fract_z
  _atom_site_occupancy
  Hg  Hg1       1.0  0.01850291700760194  0.9815003684090585  0.7500005231553787  1.0000
  Hg  Hg2       1.0  0.981500587570878  0.0185018238388466  0.24999907365722152  1.0000
  H   H1        1.0  0.03422922830516473  0.7417659709868474  0.5320334151659694  1.0000
  H   H2        1.0  0.2582199407527099  0.9657779485429927  0.9679760279880799  1.0000
  H   H3        1.0  0.9657820134991297  0.2582178359102656  0.46797313877018365  1.0000
  H   H4        1.0  0.7417639646219456  0.034235324504202004  0.032024041124721216  1.0000
  H   H5        1.0  0.21405640737157228  0.5848994557553978  0.36634976089328586  1.0000
  H   H6        1.0  0.41508881378484835  0.7859542915793156  0.13365949641976735  1.0000
  H   H7        1.0  0.7859588397721567  0.4150904205067362  0.6336571439539257  1.0000
  H   H8        1.0  0.5848944036986409  0.21406504711170266  0.8663448221452018  1.0000
  H   H9        1.0  0.39668860230293757  0.9254635897534058  0.6274264337753623  1.0000
  H   H10       1.0  0.07453396887113664  0.6033126847581373  0.8725756750223044  1.0000
  H   H11       1.0  0.603314010310676  0.07453371453938472  0.37257530257676313  1.0000
  H   H12       1.0  0.9254690288479709  0.3966834194633293  0.1274233779352301  1.0000
  H   H13       1.0  0.596480524118853  0.771745744375508  0.46908990553092184  1.0000
  H   H14       1.0  0.22826495922679158  0.4035227967398924  0.030910616868169403  1.0000
  H   H15       1.0  0.403523583934053  0.22826621570155228  0.5309072971585211  1.0000
  H   H16       1.0  0.7717455494594457  0.5964793653359379  0.9690876837358008  1.0000
  C   C1        1.0  0.1596757151871555  0.7455251621667288  0.5145271563533387  1.0000
  C   C2        1.0  0.25446484389686214  0.8403320933736753  0.9854758357782389  1.0000
  C   C3        1.0  0.8403356984044026  0.25446598288353056  0.4854762525881996  1.0000
  C   C4        1.0  0.7455236580933189  0.15967750359197908  0.014523272771668903  1.0000
  C   C5        1.0  0.2607040292343256  0.6572608866814563  0.4227185297665487  1.0000
  C   C6        1.0  0.34273889327285895  0.7392998192104514  0.07728224587715002  1.0000
  C   C7        1.0  0.7393025206941671  0.3427388357767072  0.5772828541924186  1.0000
  C   C8        1.0  0.6572593159553718  0.26070852076933443  0.9227145750814219  1.0000
  C   C9        1.0  0.42074962788654346  0.6646610590432047  0.40498107259085003  1.0000
  C   C10       1.0  0.3353401865438315  0.5792581842660098  0.09502144399208853  1.0000
  C   C11       1.0  0.5792585341843975  0.335341101172034  0.5950191772836818  1.0000
  C   C12       1.0  0.6646588108865572  0.42075135671539243  0.90497708572579  1.0000
  C   C13       1.0  0.361912966895005  0.8473148386336932  0.5680044494157885  1.0000
  C   C14       1.0  0.15268448899563936  0.6380909495798405  0.9319974788441316  1.0000
  C   C15       1.0  0.6380924311687152  0.15268490434647927  0.4319951782166244  1.0000
  C   C16       1.0  0.8473186733631052  0.3619124856440053  0.06799933943939611  1.0000
  C   C17       1.0  0.47276921302925246  0.7618624997309525  0.47971700931723416  1.0000
  C   C18       1.0  0.23814018286100944  0.527236980930418  0.020283632273837802  1.0000
  C   C19       1.0  0.5272367061890861  0.23814334557719968  0.520281341529028  1.0000
  C   C20       1.0  0.7618649481551643  0.4727676633761106  0.9797130098131108  1.0000
  S   S1        1.0  0.5642348277532958  0.5585103164829873  0.29288467198626483  1.0000
  S   S2        1.0  0.4414967283116624  0.4357712798978212  0.20711525355383742  1.0000
  S   S3        1.0  0.4357696582574773  0.4415004363719889  0.7071107576292023  1.0000
  S   S4        1.0  0.5585084707290803  0.5642370156083557  0.7928820918373278  1.0000
  I   I1        1.0  0.7644460524002029  0.8622218264450724  0.73687103746493  1.0000
  I   I2        1.0  0.1377822794264958  0.23555584575567678  0.7631303943421487  1.0000
  I   I3        1.0  0.23555513415347215  0.13778039254531646  0.2631268673357924  1.0000
  I   I4        1.0  0.8622208471941162  0.7644475537143194  0.23687097554443431  1.0000
  N   N1        1.0  0.2083978617039647  0.8390485136128663  0.5858353079985507  1.0000
  N   N2        1.0  0.16094393693697384  0.7916064117460094  0.9141685887084281  1.0000
  N   N3        1.0  0.7916123642846885  0.16094261620555983  0.4141708962194883  1.0000
  N   N4        1.0  0.8390495181837211  0.2083982804637046  0.0858305171664355  1.0000
