data_image0
_chemical_formula_structural       Na2H14C12N2Cl2O16
_chemical_formula_sum              "Na2 H14 C12 N2 Cl2 O16"
_cell_length_a       5.94160810406448
_cell_length_b       7.361021390640865
_cell_length_c       12.257946571785734
_cell_angle_alpha    100.45713977721097
_cell_angle_beta     103.98922658756064
_cell_angle_gamma    97.559495683093

_space_group_name_H-M_alt    "P 1"
_space_group_IT_number       1

loop_
  _space_group_symop_operation_xyz
  'x, y, z'

loop_
  _atom_site_type_symbol
  _atom_site_label
  _atom_site_symmetry_multiplicity
  _atom_site_fract_x
  _atom_site_fract_y
  _atom_site_fract_z
  _atom_site_occupancy
  Na  Na1       1.0  0.5000042492422027  0.5000037034299042  0.5000016125428033  1.0000
  Na  Na2       1.0  0.49999615546887094  1.7193356925002548e-06  0.4999960851137359  1.0000
  H   H1        1.0  0.9595292364758876  0.07115884164510085  0.2627762876195661  1.0000
  H   H2        1.0  0.0404856338851758  0.928837389407434  0.7372216307109412  1.0000
  H   H3        1.0  0.3536439962281008  0.3324953213292687  0.2063909241253867  1.0000
  H   H4        1.0  0.6463593311808112  0.6675050269011181  0.7936149723495092  1.0000
  H   H5        1.0  0.24358036461108412  0.3639960623166161  0.9999374235920229  1.0000
  H   H6        1.0  0.7564079402696109  0.6359831426244326  6.268142169568537e-05  1.0000
  H   H7        1.0  0.5018597596455835  0.2588424780916512  0.8748837518134209  1.0000
  H   H8        1.0  0.49812718847566356  0.741146538314105  0.1251188752707435  1.0000
  H   H9        1.0  0.8523286858248156  0.1194434069261234  0.9589996722231434  1.0000
  H   H10       1.0  0.14766402579434867  0.880555476915042  0.04100147672899369  1.0000
  H   H11       1.0  0.22603883716963938  0.25743607344837477  0.6031878659791943  1.0000
  H   H12       1.0  0.7739671774396442  0.7425755310993551  0.3968138704706732  1.0000
  H   H13       1.0  0.1218432327778274  0.1910768305813022  0.4688907263812255  1.0000
  H   H14       1.0  0.8781620230885139  0.8089305693865898  0.5311055657515169  1.0000
  C   C1        1.0  0.6528100090880284  0.21095977394739412  0.19089533267462847  1.0000
  C   C2        1.0  0.34718678012372106  0.7890503543164018  0.8091116194955176  1.0000
  C   C3        1.0  0.7158067717055728  0.18728014948619184  0.3122890959470865  1.0000
  C   C4        1.0  0.2841989887163621  0.8127146129527462  0.6877107897203912  1.0000
  C   C5        1.0  0.4576970881747968  0.2884536955751358  0.1480571039945033  1.0000
  C   C6        1.0  0.5423090130282944  0.7115579147253472  0.851942196167883  1.0000
  C   C7        1.0  0.3975041104775272  0.3052624995475526  0.03401517902442207  1.0000
  C   C8        1.0  0.6024951613363  0.6947279904461399  0.9659932257714559  1.0000
  C   C9        1.0  0.5398418374088862  0.24636244546480413  0.9642537865568316  1.0000
  C   C10       1.0  0.46013885988818254  0.7536209295680295  0.035741739254298494  1.0000
  C   C11       1.0  0.7343594345452829  0.17068652273391655  0.008005399830913997  1.0000
  C   C12       1.0  0.26563850810065764  0.829298340059893  0.9920046789295682  1.0000
  N   N1        1.0  0.7871017753974314  0.1515047019112075  0.11884935693510101  1.0000
  N   N2        1.0  0.21290657876395608  0.8485026953606791  0.8811579286296407  1.0000
  Cl  Cl1       1.0  0.9167162804919188  0.35071171025563797  0.7343878124891887  1.0000
  Cl  Cl2       1.0  0.08328611149132567  0.6492900648191694  0.2656042508442482  1.0000
  O   O1        1.0  0.9703512937237946  0.07055306753583321  0.155042404489123  1.0000
  O   O2        1.0  0.029646714791496664  0.9294458554069678  0.8449569624548943  1.0000
  O   O3        1.0  0.8947857839647426  0.10073387975155158  0.3407928413257579  1.0000
  O   O4        1.0  0.10521015991025003  0.8992720381796533  0.6592111028147514  1.0000
  O   O5        1.0  0.6024611469237797  0.24218427051218333  0.38011404502479  1.0000
  O   O6        1.0  0.39753660181008854  0.757814635172366  0.6198926307816706  1.0000
  O   O7        1.0  0.9125061673445458  0.42669022330245815  0.8516845056540561  1.0000
  O   O8        1.0  0.08747176302545513  0.5732805053919138  0.14830849283477224  1.0000
  O   O9        1.0  0.7555247645653366  0.16957441496275996  0.6891400635793516  1.0000
  O   O10       1.0  0.24448928582846455  0.8304232506045324  0.31084077322638143  1.0000
  O   O11       1.0  0.8467038987443302  0.4818420326516915  0.6613879183944249  1.0000
  O   O12       1.0  0.15329982717494056  0.518175167275409  0.3386157683837255  1.0000
  O   O13       1.0  0.1581074717628539  0.32480924233810526  0.7355679928833324  1.0000
  O   O14       1.0  0.8419090513179057  0.6752178752423391  0.2644326518477982  1.0000
  O   O15       1.0  0.271473068332007  0.23426401513521  0.5303042858858262  1.0000
  O   O16       1.0  0.7285276954750941  0.7657391407619868  0.4696934346059933  1.0000
