data_image0
_chemical_formula_structural       Mn4H12C28N4O16
_chemical_formula_sum              "Mn4 H12 C28 N4 O16"
_cell_length_a       6.003575764009467
_cell_length_b       7.352541498000883
_cell_length_c       14.659226347022978
_cell_angle_alpha    89.99995076929301
_cell_angle_beta     89.99980570379452
_cell_angle_gamma    90.00004994925354

_space_group_name_H-M_alt    "P 1"
_space_group_IT_number       1

loop_
  _space_group_symop_operation_xyz
  'x, y, z'

loop_
  _atom_site_type_symbol
  _atom_site_label
  _atom_site_symmetry_multiplicity
  _atom_site_fract_x
  _atom_site_fract_y
  _atom_site_fract_z
  _atom_site_occupancy
  Mn  Mn1       1.0  0.09023403882693509  0.131084780290152  0.5402023649609333  1.0000
  Mn  Mn2       1.0  0.9097728336292265  0.6310864760761704  0.4597984194433877  1.0000
  Mn  Mn3       1.0  0.909762704970049  0.1310720398887213  0.0402026949992944  1.0000
  Mn  Mn4       1.0  0.09022917642302988  0.6310856157338521  0.9597960429251201  1.0000
  H   H1        1.0  0.9573051704594774  0.15700573675202628  0.2520958314745201  1.0000
  H   H2        1.0  0.042691729489725085  0.6570169780653855  0.747901532911932  1.0000
  H   H3        1.0  0.0426931702438011  0.15701299548877756  0.7520948852444889  1.0000
  H   H4        1.0  0.9573070610381222  0.6570069991787834  0.2479058899613307  1.0000
  H   H5        1.0  0.22975576419930377  0.44091274540226527  0.1994359352052371  1.0000
  H   H6        1.0  0.770244702778271  0.9409231536219311  0.8005640570493497  1.0000
  H   H7        1.0  0.7702432485958326  0.44092063723585534  0.6994339793845086  1.0000
  H   H8        1.0  0.22975888406195108  0.9409166218643676  0.3005646485402025  1.0000
  H   H9        1.0  0.47838141456482924  0.3480376132173292  0.072394286278687  1.0000
  H   H10       1.0  0.5216056499277641  0.8480570696023123  0.9276043746256235  1.0000
  H   H11       1.0  0.5216135769041443  0.34805344914311576  0.5723940397953129  1.0000
  H   H12       1.0  0.47838847865209994  0.8480561944941983  0.4276066675886625  1.0000
  C   C1        1.0  0.7951302174586771  0.22112908072662657  0.2431377518147215  1.0000
  C   C2        1.0  0.20486673571389954  0.7211363648855242  0.7568616363014371  1.0000
  C   C3        1.0  0.2048682507083655  0.22113376043506613  0.7431379448700852  1.0000
  C   C4        1.0  0.7951336994709165  0.7211289650279582  0.2568648540642897  1.0000
  C   C5        1.0  0.6684370952200709  0.2716665763310075  0.3188764798223147  1.0000
  C   C6        1.0  0.3315598999035386  0.7716714032066392  0.6811235725177694  1.0000
  C   C7        1.0  0.33155745590422464  0.2716672860620477  0.8188758149100721  1.0000
  C   C8        1.0  0.6684328765172153  0.7716557326594825  0.1811242374372881  1.0000
  C   C9        1.0  0.45709980237798925  0.35002715816826674  0.30459004686704116  1.0000
  C   C10       1.0  0.5429005891431514  0.8500239797139385  0.6954099776542364  1.0000
  C   C11       1.0  0.5429032605639889  0.35002397158270776  0.8045884065213542  1.0000
  C   C12       1.0  0.4570937996074775  0.8500162857073119  0.1954109358399307  1.0000
  C   C13       1.0  0.3910312290479822  0.3800399715136392  0.21455941531328188  1.0000
  C   C14       1.0  0.6089658560471775  0.880051629942912  0.7854405985531584  1.0000
  C   C15       1.0  0.6089642765352393  0.38005044315540454  0.7145576832897973  1.0000
  C   C16       1.0  0.3910328085633026  0.8800425183757595  0.2854416484121601  1.0000
  C   C17       1.0  0.5288043967831939  0.32731955794537987  0.142919122759416  1.0000
  C   C18       1.0  0.47119097887586037  0.8273363924221684  0.857080227658706  1.0000
  C   C19       1.0  0.4711916587168402  0.3273299096996994  0.6429182640819207  1.0000
  C   C20       1.0  0.5288087139636132  0.82733148096505  0.3570817684960089  1.0000
  C   C21       1.0  0.7741936795789285  0.24663300963913312  0.4101643116498792  1.0000
  C   C22       1.0  0.22581328880986007  0.7466324881507801  0.5898343852426322  1.0000
  C   C23       1.0  0.2258100882918654  0.246630907198039  0.9101651578142408  1.0000
  C   C24       1.0  0.7741918830512161  0.7466114693294728  0.08983694990703128  1.0000
  C   C25       1.0  0.2958122854055603  0.38589760012911967  0.3816651612267847  1.0000
  C   C26       1.0  0.7041947985914802  0.8858974374869392  0.618334850555371  1.0000
  C   C27       1.0  0.7041901685870184  0.3858945538912479  0.8816639792337425  1.0000
  C   C28       1.0  0.2958052556785304  0.8858814426833704  0.1183373968883572  1.0000
  N   N1        1.0  0.7274159416492623  0.2463095471447546  0.1566236789177395  1.0000
  N   N2        1.0  0.27257436973710714  0.7463235162611356  0.8433750180985768  1.0000
  N   N3        1.0  0.27257660167659026  0.24632108614364503  0.6566237780117063  1.0000
  N   N4        1.0  0.7274220380684182  0.7463187776320697  0.343378329818826  1.0000
  O   O1        1.0  0.8822941396110408  0.1011731364218704  0.4236547424758754  1.0000
  O   O2        1.0  0.11771270801627756  0.6011752681979131  0.5763453703827324  1.0000
  O   O3        1.0  0.11770939570410378  0.1011722999874181  0.9236564208109357  1.0000
  O   O4        1.0  0.8822991175661272  0.601155703518664  0.0763491493640487  1.0000
  O   O5        1.0  0.7661965894407884  0.37589845347098116  0.46880176799597  1.0000
  O   O6        1.0  0.23380882058962266  0.8758980571010401  0.5311962008443487  1.0000
  O   O7        1.0  0.23380846549061832  0.3758977180646284  0.9688012387334908  1.0000
  O   O8        1.0  0.7662002758764787  0.8758783913992191  0.0311974122723768  1.0000
  O   O9        1.0  0.30039756711114046  0.2737199983765705  0.4473644159112808  1.0000
  O   O10       1.0  0.6996044267399455  0.7737199641324394  0.5526349535329943  1.0000
  O   O11       1.0  0.6996125776878799  0.273710147787206  0.9473584651272374  1.0000
  O   O12       1.0  0.30039607887444925  0.7737121337691306  0.05263544700163441  1.0000
  O   O13       1.0  0.1643390671058924  0.5204115842392483  0.372106061075506  1.0000
  O   O14       1.0  0.835671044817971  0.020407640257190003  0.6278947626163642  1.0000
  O   O15       1.0  0.8356635777701057  0.5204127326267952  0.8721060609701397  1.0000
  O   O16       1.0  0.16432654605004157  0.020395611266771106  0.1278974913944921  1.0000
