data_image0
_chemical_formula_structural       Al6H62C90N6O28F30
_chemical_formula_sum              "Al6 H62 C90 N6 O28 F30"
_cell_length_a       13.63053924883316
_cell_length_b       13.63181917657218
_cell_length_c       28.158512181083417
_cell_angle_alpha    89.8835215218434
_cell_angle_beta     90.10162417653213
_cell_angle_gamma    60.059986229778815

_space_group_name_H-M_alt    "P 1"
_space_group_IT_number       1

loop_
  _space_group_symop_operation_xyz
  'x, y, z'

loop_
  _atom_site_type_symbol
  _atom_site_label
  _atom_site_symmetry_multiplicity
  _atom_site_fract_x
  _atom_site_fract_y
  _atom_site_fract_z
  _atom_site_occupancy
  Al  Al1       1.0  0.7533621179563428  0.7633680905526317  0.7492171573009827  1.0000
  Al  Al2       1.0  0.7430013886218916  0.5330931746840901  0.7494646203289435  1.0000
  Al  Al3       1.0  0.5228871542907357  0.752563154406154  0.7510655645449376  1.0000
  Al  Al4       1.0  0.24599037581571534  0.5144288057292102  0.2512351429044912  1.0000
  Al  Al5       1.0  0.2606486480389166  0.27124148787140007  0.2508722108442214  1.0000
  Al  Al6       1.0  0.47843560273857116  0.274779996500108  0.2512874730185857  1.0000
  H   H1        1.0  0.656242276149868  0.3679567640852  0.0328444748390311  1.0000
  H   H2        1.0  0.6051236563489438  0.7769384009927054  0.5249397677570116  1.0000
  H   H3        1.0  0.6105475002119931  0.5864275632362492  0.5299163492644325  1.0000
  H   H4        1.0  0.841801370767904  0.49955129493893935  0.5392638679367465  1.0000
  H   H5        1.0  0.6729799274547615  0.3799247785476609  0.5424743914152614  1.0000
  H   H6        1.0  0.39067726068876146  0.9076403798484519  0.5208636951964749  1.0000
  H   H7        1.0  0.872420854626988  0.6726350715906262  0.5244734677155805  1.0000
  H   H8        1.0  0.3250251950153427  0.12545633947973298  0.4715774401840561  1.0000
  H   H9        1.0  0.5541334143069393  0.31548683199353883  0.47650037429585274  1.0000
  H   H10       1.0  0.0916271550074724  0.6007026293919964  0.47414127693127733  1.0000
  H   H11       1.0  0.6833073040806498  0.42676205321693317  0.9583451191132255  1.0000
  H   H12       1.0  0.37599315205001466  0.9703769077074823  0.0438971902438183  1.0000
  H   H13       1.0  0.4293821044022226  0.8821814920064168  0.9695729725697149  1.0000
  H   H14       1.0  0.8933263261250206  0.6749970364213098  0.9622048900491721  1.0000
  H   H15       1.0  0.3342420294974033  0.16030642259780592  0.039961422879933706  1.0000
  H   H16       1.0  0.5051496607497798  0.3262228539962706  0.0293385459128004  1.0000
  H   H17       1.0  0.16606052277053612  0.4960122952746531  0.0360758399041714  1.0000
  H   H18       1.0  0.46604432668799234  0.6888909745184363  0.53028948753267  1.0000
  H   H19       1.0  0.6853380591782142  0.8451961885801538  0.5189557305865975  1.0000
  H   H20       1.0  0.9655150319710659  0.3674677119158645  0.5326339876735275  1.0000
  H   H21       1.0  0.6282538753168012  0.03715344455553551  0.4643570058701556  1.0000
  H   H22       1.0  0.30697229787296715  0.610451554617015  0.4673162177288432  1.0000
  H   H23       1.0  0.9739220894426309  0.6462940241297235  0.0379936475869442  1.0000
  H   H24       1.0  0.1362047355929477  0.311127495612631  0.4808312130728751  1.0000
  H   H25       1.0  0.3703874670070706  0.47465027434363793  0.5551720051860869  1.0000
  H   H26       1.0  0.4600283501580408  0.1377960071187161  0.5437090998957501  1.0000
  H   H27       1.0  0.16982079693401178  0.4744296747133987  0.5429244463877154  1.0000
  H   H28       1.0  0.5284171198843168  0.8262494476903369  0.4486327047634404  1.0000
  H   H29       1.0  0.6023337869547803  0.5562087228315136  0.4494976533778257  1.0000
  H   H30       1.0  0.8481383551352195  0.5574005495320691  0.4605416617587466  1.0000
  H   H31       1.0  0.367291251157269  0.7384986791079344  0.4610524934690758  1.0000
  H   H32       1.0  0.4020709721891293  0.8044670409049529  0.38575844691049355  1.0000
  H   H33       1.0  0.3819657818768151  0.6859815418610892  0.3768401248989406  1.0000
  H   H34       1.0  0.33393798716231526  0.08858384472328142  0.9648842832275477  1.0000
  H   H35       1.0  0.5207471450189587  0.6664345008072701  0.3784610171328922  1.0000
  H   H36       1.0  0.7351149831646426  0.841850760375756  0.44010980373582237  1.0000
  H   H37       1.0  0.7732248642742265  0.7328156587344806  0.37220441310757474  1.0000
  H   H38       1.0  0.6360269557954578  0.8499571449980013  0.3599528596383692  1.0000
  H   H39       1.0  0.65107624666188  0.720220194878202  0.3814063047794106  1.0000
  H   H40       1.0  0.9758930925225187  0.3110057332577155  0.4495969468002912  1.0000
  H   H41       1.0  0.8342811643896155  0.34567701777257287  0.3919024575827095  1.0000
  H   H42       1.0  0.9016713020278644  0.4223103115475766  0.3722110496375848  1.0000
  H   H43       1.0  0.7703114281165782  0.4926464337174251  0.403027619046938  1.0000
  H   H44       1.0  0.7065723813422762  0.9894116018118738  0.5383723498383404  1.0000
  H   H45       1.0  0.572880824362656  0.33350000154946713  0.954224278984036  1.0000
  H   H46       1.0  0.7026279520308024  0.10728277019823201  0.6043512137562601  1.0000
  H   H47       1.0  0.6559648018368804  0.013132955544136798  0.6243679779916675  1.0000
  H   H48       1.0  0.5560846139192319  0.1563944541827951  0.609550586678985  1.0000
  H   H49       1.0  0.28633046997688166  0.7167126267295175  0.5423150513420438  1.0000
  H   H50       1.0  0.1602447231338147  0.7344985788251962  0.6047579704972748  1.0000
  H   H51       1.0  0.3004993365290289  0.6550815059293171  0.6283743465282684  1.0000
  H   H52       1.0  0.22670921315346254  0.5855544054578344  0.6082620713659068  1.0000
  H   H53       1.0  0.16329281957602151  0.2667355585704954  0.5630607616068275  1.0000
  H   H54       1.0  0.2868988744656633  0.24259405067000023  0.6255510706707241  1.0000
  H   H55       1.0  0.16725728716151178  0.37882982429912454  0.6367312266686795  1.0000
  H   H56       1.0  0.09641396090987799  0.5640135705922589  0.9600119779588566  1.0000
  H   H57       1.0  0.2893776755956877  0.36645215204313075  0.6079858406348535  1.0000
  H   H58       1.0  0.343954214893742  0.4680071674274018  0.4743696619541709  1.0000
  H   H59       1.0  0.49291416769752067  0.158116001056321  0.4635709760666629  1.0000
  H   H60       1.0  0.21325611587523938  0.38047317279166754  0.4685310222211143  1.0000
  H   H61       1.0  0.8303804824619334  0.8719864883078897  0.7778500779853346  1.0000
  H   H62       1.0  0.15166163050258066  0.7005729754683755  0.22171607722561495  1.0000
  C   C1        1.0  0.8758924865255153  0.561457771587733  0.8162770731280985  1.0000
  C   C2        1.0  0.5769459241057007  0.8681867755606234  0.45820279772463823  1.0000
  C   C3        1.0  0.5184539602775189  0.5884565098088784  0.46568650784673343  1.0000
  C   C4        1.0  0.9221460003962393  0.47523526696971163  0.4701431644996815  1.0000
  C   C5        1.0  0.47063283383421617  0.45266616713761465  0.3659964094741071  1.0000
  C   C6        1.0  0.4644876457866332  0.072369406542478  0.3588870544535041  1.0000
  C   C7        1.0  0.08434981520058939  0.45412488458512706  0.3651156952859296  1.0000
  C   C8        1.0  0.5292859539964354  0.9117503321908701  0.6329704147190895  1.0000
  C   C9        1.0  0.535823101817421  0.548591527471082  0.6400994367548593  1.0000
  C   C10       1.0  0.9342776410694427  0.5346094483764077  0.6391537580544835  1.0000
  C   C11       1.0  0.49972529029359686  0.5209186251039527  0.5494265415388071  1.0000
  C   C12       1.0  0.5634378039991007  0.5721344993008657  0.8138284410142731  1.0000
  C   C13       1.0  0.5130730590054567  0.958656519693946  0.5406084559620155  1.0000
  C   C14       1.0  0.9991754047600453  0.503636268822305  0.5490120546589097  1.0000
  C   C15       1.0  0.4949518817978388  0.9999428177623954  0.4483589319179373  1.0000
  C   C16       1.0  0.48557716379449545  0.49334500994847735  0.4574065830503002  1.0000
  C   C17       1.0  0.030154770533734155  0.4843182286896166  0.456485629334665  1.0000
  C   C18       1.0  0.5759563103269228  0.3825054860093431  0.4812247109353223  1.0000
  C   C19       1.0  0.37915846041997275  0.032667291061763096  0.47075351524336634  1.0000
  C   C20       1.0  0.011558724515076288  0.5992740927078799  0.47463690895375515  1.0000
  C   C21       1.0  0.39633701813502153  0.9854894852752667  0.5211349629200939  1.0000
  C   C22       1.0  0.5860818892676676  0.39925632291873814  0.5344038391708708  1.0000
  C   C23       1.0  0.5576882630201466  0.8799866761236431  0.8186410728350424  1.0000
  C   C24       1.0  0.9652726222202405  0.6188865269164125  0.5252542861177076  1.0000
  C   C25       1.0  0.4781861548693485  0.472596141423395  0.4074570933950525  1.0000
  C   C26       1.0  0.4800925622653552  0.0329474310287523  0.398824940535306  1.0000
  C   C27       1.0  0.05524100202895  0.470618048980036  0.4064061652402842  1.0000
  C   C28       1.0  0.5210950762238297  0.9334317821158609  0.5907806591318803  1.0000
  C   C29       1.0  0.5151354012909267  0.5360074195931118  0.599284426076636  1.0000
  C   C30       1.0  0.9709630392753467  0.5187808211234285  0.5989029271895774  1.0000
  C   C31       1.0  0.8763818273028079  0.5654827428334812  0.6838546672014658  1.0000
  C   C32       1.0  0.5647294818509537  0.5745408819643458  0.6854534576307502  1.0000
  C   C33       1.0  0.5550099449840502  0.8747087456642221  0.6814117780170647  1.0000
  C   C34       1.0  0.12610220100561523  0.43075361492534364  0.1844982304930696  1.0000
  C   C35       1.0  0.13284326589703707  0.43284611504700615  0.3185584280338247  1.0000
  C   C36       1.0  0.43700386425023663  0.1328644199510762  0.3148047811848755  1.0000
  C   C37       1.0  0.44534257991559667  0.43394016126379137  0.3184519721070771  1.0000
  C   C38       1.0  0.6084117317624801  0.4940986944506989  0.9763131698202656  1.0000
  C   C39       1.0  0.4975537513570956  0.8911258497956778  0.9861704438640116  1.0000
  C   C40       1.0  0.8987257009911289  0.6002296855397019  0.9796702479670074  1.0000
  C   C41       1.0  0.4171804035345232  0.12536700933733866  0.0229266624165305  1.0000
  C   C42       1.0  0.4567979765549169  0.4109215381744917  0.0136884654017919  1.0000
  C   C43       1.0  0.13077551473210036  0.4477842808704295  0.0193490119502968  1.0000
  C   C44       1.0  0.48963234834147334  0.4090502240542975  0.9605774771951872  1.0000
  C   C45       1.0  0.44373587515030277  0.13534113836130499  0.1867715576417055  1.0000
  C   C46       1.0  0.4104717016157977  0.0954326949098032  0.9700772882499463  1.0000
  C   C47       1.0  0.10309778006858031  0.4809561652053277  0.966036820263639  1.0000
  C   C48       1.0  0.468351031411558  0.9294923272836898  0.038786216753720695  1.0000
  C   C49       1.0  0.6036616376926816  0.4605718576066877  0.028797879248472196  1.0000
  C   C50       1.0  0.9336967218174053  0.5941775909171839  0.0327053023716246  1.0000
  C   C51       1.0  0.4641675090317606  0.4591887751432181  0.134559469786744  1.0000
  C   C52       1.0  0.47539188387395376  0.0775504363621735  0.1419104095704924  1.0000
  C   C53       1.0  0.07380047081311866  0.4497798855724539  0.1383488410010969  1.0000
  C   C54       1.0  0.5317551547213312  0.9285321332195268  0.8656359037856517  1.0000
  C   C55       1.0  0.5332835580445946  0.5421268394181596  0.8582551475381237  1.0000
  C   C56       1.0  0.43944164010354586  0.43725646784983485  0.18199752455586798  1.0000
  C   C57       1.0  0.9321117192955556  0.5267447332737235  0.8616680820276984  1.0000
  C   C58       1.0  0.49955351378518736  0.5152103066498128  0.9490651377481925  1.0000
  C   C59       1.0  0.5151340452456877  0.9793821388548666  0.957463126031456  1.0000
  C   C60       1.0  0.987453138585991  0.49161372111981905  0.9529519764228028  1.0000
  C   C61       1.0  0.5041807525183729  0.018407079608294897  0.0509806994936497  1.0000
  C   C62       1.0  0.4804725804911315  0.49407215224716333  0.0426581760295903  1.0000
  C   C63       1.0  0.022204259490209245  0.47047223306831387  0.046630896062588106  1.0000
  C   C64       1.0  0.3974871412957199  0.6171648987584958  0.0258144930875517  1.0000
  C   C65       1.0  0.6252311359035118  0.9789150391306694  0.0319146399005348  1.0000
  C   C66       1.0  0.9830984301097915  0.38781907016691963  0.0285008301453686  1.0000
  C   C67       1.0  0.37716366426052866  0.5424746609959497  0.5370203244573801  1.0000
  C   C68       1.0  0.6244771574824314  0.9767167719048329  0.9758440205875444  1.0000
  C   C69       1.0  0.39496920860912604  0.6224112438051036  0.9697332927973648  1.0000
  C   C70       1.0  0.9830653136832836  0.38687141249551615  0.9725157380419419  1.0000
  C   C71       1.0  0.4709774183044289  0.4785086918735714  0.092997090289181  1.0000
  C   C72       1.0  0.49348339457875307  0.04525784357679189  0.10109126140221042  1.0000
  C   C73       1.0  0.045623728760865845  0.45886454774916535  0.0970230091373452  1.0000
  C   C74       1.0  0.5224162648048533  0.9549676827705227  0.9071784362900033  1.0000
  C   C75       1.0  0.5138136999244054  0.5283732625148261  0.8989801820000024  1.0000
  C   C76       1.0  0.9632404980937396  0.5065541105720825  0.9026438450080647  1.0000
  C   C77       1.0  0.5261757729645282  0.6011949109782647  0.5200215581758556  1.0000
  C   C78       1.0  0.5341780630175633  0.0614128521515909  0.5297173150853425  1.0000
  C   C79       1.0  0.6013592800219246  0.8549227432484231  0.5122166007304614  1.0000
  C   C80       1.0  0.9276825424250958  0.4582229608314704  0.5244534226514617  1.0000
  C   C81       1.0  0.5398724723189474  0.06917702440252071  0.47503617873481824  1.0000
  C   C82       1.0  0.3717209508737299  0.5292764157957491  0.48243683372971446  1.0000
  C   C83       1.0  0.13436264302713155  0.3924941922897104  0.48427409746741995  1.0000
  C   C84       1.0  0.4359078973159283  0.7144222263197266  0.3940874366824119  1.0000
  C   C85       1.0  0.6849752034197821  0.7781799671111783  0.3842668352516796  1.0000
  C   C86       1.0  0.8521298120305542  0.41345435104864237  0.4010882781688778  1.0000
  C   C87       1.0  0.6375768474781298  0.0829206842407118  0.5996611531037884  1.0000
  C   C88       1.0  0.241894736388069  0.6561692145148328  0.6010987477743726  1.0000
  C   C89       1.0  0.12948256355381454  0.42256735646298443  0.5373144902159481  1.0000
  C   C90       1.0  0.23490041061675979  0.328392263861879  0.6110808650732266  1.0000
  N   N1        1.0  0.4453518601493795  0.6999534032511435  0.4457342527963846  1.0000
  N   N2        1.0  0.6834146036752314  0.8093298614992366  0.4338275868057977  1.0000
  N   N3        1.0  0.905792353574121  0.389393642304661  0.4478241574038222  1.0000
  N   N4        1.0  0.633344637507534  0.05770174113388998  0.5495399323106653  1.0000
  N   N5        1.0  0.28079383975247646  0.6476752678139236  0.5521400517943178  1.0000
  N   N6        1.0  0.1954060105730805  0.3199898545578179  0.5639377867600572  1.0000
  O   O1        1.0  0.6516855872784433  0.8583274952046551  0.8014270259639743  1.0000
  O   O2        1.0  0.14879580107599827  0.5038875428116184  0.1998196270943211  1.0000
  O   O3        1.0  0.34565348389187284  0.16274672802109794  0.2024323553206244  1.0000
  O   O4        1.0  0.5140687609148316  0.3452142378732431  0.20232375196544441  1.0000
  O   O5        1.0  0.6499942240546944  0.854317392086095  0.6973479648663385  1.0000
  O   O6        1.0  0.8520493322870879  0.4936912457490266  0.7026413541458892  1.0000
  O   O7        1.0  0.4940551895745104  0.6694220048496788  0.7040304758997564  1.0000
  O   O8        1.0  0.35083889813031993  0.5063326740333454  0.30138500807809976  1.0000
  O   O9        1.0  0.15391531994446694  0.33898942961453565  0.29877396243699644  1.0000
  O   O10       1.0  0.5053826454728139  0.16371218035423138  0.29894879583271466  1.0000
  O   O11       1.0  0.8504606833374169  0.6614926599655533  0.7002260766371577  1.0000
  O   O12       1.0  0.8525622515436738  0.4903222790331512  0.7963504491210571  1.0000
  O   O13       1.0  0.6613522475668956  0.5031597268310293  0.7029569625566056  1.0000
  O   O14       1.0  0.48001484007061634  0.8617979956367989  0.7043764668887675  1.0000
  O   O15       1.0  0.15433688124254985  0.5057994303991579  0.3016417770166484  1.0000
  O   O16       1.0  0.3425521669428662  0.1560408122766361  0.2953994713061121  1.0000
  O   O17       1.0  0.5201752661943148  0.34233785905794173  0.2976808605582235  1.0000
  O   O18       1.0  0.6720795363544313  0.6821792358915529  0.7505320902424301  1.0000
  O   O19       1.0  0.3293073800066822  0.35177324134105703  0.2505226293635232  1.0000
  O   O20       1.0  0.4926819343868658  0.6693083620363539  0.7968978846377297  1.0000
  O   O21       1.0  0.34431213208193867  0.5088235541784557  0.19846446892494637  1.0000
  O   O22       1.0  0.14960251186482051  0.3364275984280383  0.2047385141132381  1.0000
  O   O23       1.0  0.5141146511465992  0.15960607091969337  0.2058667447256468  1.0000
  O   O24       1.0  0.8503707574802418  0.658457403581295  0.8012981126867444  1.0000
  O   O25       1.0  0.6599344440426904  0.502783759095827  0.7963796300303088  1.0000
  O   O26       1.0  0.4844202966071835  0.8588369338534887  0.7994178929768624  1.0000
  O   O27       1.0  0.8257145523019317  0.8390103500250277  0.7481845332900646  1.0000
  O   O28       1.0  0.17064463570920904  0.6622788965760052  0.2520876726123973  1.0000
  F   F1        1.0  0.5665316661258897  0.3223216621810963  0.5605204321286976  1.0000
  F   F2        1.0  0.5179818235975875  0.8373968156635099  0.0690448294815056  1.0000
  F   F3        1.0  0.6473932711234697  0.5090248226220524  0.0588833716662123  1.0000
  F   F4        1.0  0.8398800535765361  0.637486475429661  0.0617337607248629  1.0000
  F   F5        1.0  0.34271162380112236  0.44413301816015155  0.0169901070527771  1.0000
  F   F6        1.0  0.449454160987365  0.20704215681928423  0.0253631865210622  1.0000
  F   F7        1.0  0.21148878657897538  0.3337450929146399  0.023243300478739605  1.0000
  F   F8        1.0  0.595470247272111  0.7874746499632649  0.98438515582842  1.0000
  F   F9        1.0  0.6154122056568098  0.5913994939157307  0.9747157051721871  1.0000
  F   F10       1.0  0.7939225157016596  0.6086426854489841  0.9763938070033406  1.0000
  F   F11       1.0  0.39137611899177227  0.7197200601209629  0.954750220499733  1.0000
  F   F12       1.0  0.3077289550493987  0.06328810489446109  0.5504005232155933  1.0000
  F   F13       1.0  0.7201816416242366  0.8835574115486793  0.9598159482179155  1.0000
  F   F14       1.0  0.8897749662578323  0.3842099977615731  0.9561596372624308  1.0000
  F   F15       1.0  0.6642116924967851  0.04863174764204099  0.0472227200373538  1.0000
  F   F16       1.0  0.2903874768392711  0.6549277399222433  0.0426534172390234  1.0000
  F   F17       1.0  0.051683433651213306  0.2803244121052586  0.0454397665355017  1.0000
  F   F18       1.0  0.29744790959436784  0.627661437071154  0.9535453972047563  1.0000
  F   F19       1.0  0.627820255757058  0.06941309285984691  0.9587393897246059  1.0000
  F   F20       1.0  0.07569091105283829  0.2894955909694588  0.9567622443778349  1.0000
  F   F21       1.0  0.6987956502904141  0.8730736955892907  0.04887681645197969  1.0000
  F   F22       1.0  0.43182618079136154  0.6889414334151596  0.043058696606202304  1.0000
  F   F23       1.0  0.00772513383518015  0.6779175503348254  0.551114122175413  1.0000
  F   F24       1.0  0.876390344079489  0.42158987460274494  0.044606635463694  1.0000
  F   F25       1.0  0.3208419804820792  0.9907015944947872  0.443689895917629  1.0000
  F   F26       1.0  0.6818997465069432  0.3445590771884922  0.4595572720551573  1.0000
  F   F27       1.0  0.9356983311803757  0.6888729201039965  0.4450964263520163  1.0000
  F   F28       1.0  0.4128245229254547  0.40086174203380404  0.9311830960982873  1.0000
  F   F29       1.0  0.40062694827548023  0.18072382217233238  0.9404124036207904  1.0000
  F   F30       1.0  0.1892797396590709  0.4039795457096461  0.9374348528199121  1.0000
