data_image0
_chemical_formula_structural       K2H44C34N6O12
_chemical_formula_sum              "K2 H44 C34 N6 O12"
_cell_length_a       7.363250660001718
_cell_length_b       8.216825456719674
_cell_length_c       14.993971343863977
_cell_angle_alpha    92.71027133528193
_cell_angle_beta     90.00002252843848
_cell_angle_gamma    89.9999242886811

_space_group_name_H-M_alt    "P 1"
_space_group_IT_number       1

loop_
  _space_group_symop_operation_xyz
  'x, y, z'

loop_
  _atom_site_type_symbol
  _atom_site_label
  _atom_site_symmetry_multiplicity
  _atom_site_fract_x
  _atom_site_fract_y
  _atom_site_fract_z
  _atom_site_occupancy
  K   K1        1.0  0.7255358723704362  0.038712447188174806  0.9098785801991196  1.0000
  K   K2        1.0  0.22553287176793188  0.9612920098422182  0.09012354539216717  1.0000
  H   H1        1.0  0.7047377149843825  0.4385389822135225  0.9492862278949301  1.0000
  H   H2        1.0  0.204737986336113  0.5614606290149595  0.05071376493844328  1.0000
  H   H3        1.0  0.547634113289895  0.8856605075340412  0.6865039371724604  1.0000
  H   H4        1.0  0.04763389541850668  0.11433928928357061  0.3134953634083998  1.0000
  H   H5        1.0  0.08249056973860289  0.7372684735832138  0.9200451502700273  1.0000
  H   H6        1.0  0.5824898559024019  0.2627337179608631  0.07995488718269428  1.0000
  H   H7        1.0  0.9080132281024264  0.7213485674040429  0.978305140846089  1.0000
  H   H8        1.0  0.40801389163642915  0.2786520245812839  0.021694250047950392  1.0000
  H   H9        1.0  0.4082026977602453  0.7378964514414151  0.9352145261197717  1.0000
  H   H10       1.0  0.9082046888115227  0.2621029208481218  0.06478549953989438  1.0000
  H   H11       1.0  0.5785636280211435  0.7285905071352518  0.9964802336386566  1.0000
  H   H12       1.0  0.07856428754620738  0.27140803498255656  0.0035190397611870984  1.0000
  H   H13       1.0  0.846567765278799  0.3097257615511424  0.7857278423165253  1.0000
  H   H14       1.0  0.34656662110327824  0.6902749014982563  0.21427220557009002  1.0000
  H   H15       1.0  0.9257229305199529  0.4735923899180678  0.8562206832574402  1.0000
  H   H16       1.0  0.4257246865023845  0.5264081812693319  0.14377871049389054  1.0000
  H   H17       1.0  0.5716374157326171  0.4890105682970046  0.7494006255262133  1.0000
  H   H18       1.0  0.07163792239082768  0.5109892003320411  0.2505986789272966  1.0000
  H   H19       1.0  0.6805022809239886  0.6522426150926393  0.8078765520984488  1.0000
  H   H20       1.0  0.18050569649496848  0.34775824297213387  0.19212346899626445  1.0000
  H   H21       1.0  0.9051622699158128  0.9748255131072202  0.6587502509059602  1.0000
  H   H22       1.0  0.4051622054425933  0.025175081131415304  0.3412498064341278  1.0000
  H   H23       1.0  0.7630729221418449  0.8431389875383958  0.5926452061161452  1.0000
  H   H24       1.0  0.26307135935623893  0.1568617735629374  0.4073548282997449  1.0000
  H   H25       1.0  0.042745809422157784  0.710418225237163  0.6579523434703844  1.0000
  H   H26       1.0  0.5427452674234416  0.2895803578486777  0.3420475910567403  1.0000
  H   H27       1.0  0.9525980483349628  0.7513589184938783  0.7658250959796858  1.0000
  H   H28       1.0  0.45259892726328127  0.24864040166087883  0.23417493684243593  1.0000
  H   H29       1.0  0.9883051104820025  0.6154547588476191  0.5345849773988718  1.0000
  H   H30       1.0  0.48830461802845077  0.3845420826207829  0.46541499684171567  1.0000
  H   H31       1.0  8.270336077489997e-05  0.41560623383779227  0.4090315149017768  1.0000
  H   H32       1.0  0.5000832869145951  0.58439361553571  0.590969778725615  1.0000
  H   H33       1.0  0.6512777228584524  0.09319037864310792  0.5481269403690303  1.0000
  H   H34       1.0  0.15127916823211512  0.9068080758926129  0.45187367857437966  1.0000
  H   H35       1.0  0.6402376720474264  0.2856773562337978  0.6761369924681231  1.0000
  H   H36       1.0  0.14023522278841227  0.7143211101739055  0.3238642915998965  1.0000
  H   H37       1.0  0.7814252903322724  0.071990292170625  0.22717226749129074  1.0000
  H   H38       1.0  0.28142967948626557  0.928009230092947  0.7728270708087873  1.0000
  H   H39       1.0  0.7776491482013907  0.8675062131471236  0.10005085156678457  1.0000
  H   H40       1.0  0.27765209262321383  0.13249331355179092  0.8999484861239535  1.0000
  H   H41       1.0  0.7354195162174546  0.48008987413888354  0.28148627082163796  1.0000
  H   H42       1.0  0.23541767079321116  0.5199084826824604  0.7185136947905091  1.0000
  H   H43       1.0  0.7299938243920321  0.6856488200339825  0.4105831190637657  1.0000
  H   H44       1.0  0.22999489314569388  0.3143507615346691  0.5894168778443853  1.0000
  C   C1        1.0  0.8024608256692501  0.41632680433278324  0.8276823734864959  1.0000
  C   C2        1.0  0.3024625205087047  0.5836739116068017  0.1723170003782641  1.0000
  C   C3        1.0  0.7051911737841152  0.5375513856431129  0.7695232666712354  1.0000
  C   C4        1.0  0.20519309364426158  0.4624494434292786  0.2304767584065529  1.0000
  C   C5        1.0  0.8111549540617276  0.8709490129680831  0.6612841837751373  1.0000
  C   C6        1.0  0.3111547349033259  0.12905169166759833  0.3387158583982098  1.0000
  C   C7        1.0  0.9154486855025397  0.7257935549273997  0.6955073568558701  1.0000
  C   C8        1.0  0.4154482254554708  0.2742058088542905  0.3044926699726317  1.0000
  C   C9        1.0  0.8182485680880445  0.4671082268665074  0.6186232727085608  1.0000
  C   C10       1.0  0.31824914799063453  0.5328912499658501  0.3813774053442528  1.0000
  C   C11       1.0  0.9170201052530088  0.5004614231382761  0.5400046526887434  1.0000
  C   C12       1.0  0.41701808135484697  0.49953793770382054  0.45999604129922006  1.0000
  C   C13       1.0  0.9236544571569353  0.38808344768222014  0.4685997917205426  1.0000
  C   C14       1.0  0.4236550418808277  0.6119146858948242  0.5314015380729413  1.0000
  C   C15       1.0  0.8316775281509267  0.23804927153743455  0.47032043284252  1.0000
  C   C16       1.0  0.3316778910176268  0.761948973337681  0.529678881393586  1.0000
  C   C17       1.0  0.7271272910298238  0.2065503234899779  0.5468384820755005  1.0000
  C   C18       1.0  0.22712754592316028  0.7934492614454456  0.4531615143701087  1.0000
  C   C19       1.0  0.7210497604914892  0.316359079701492  0.6187110519348662  1.0000
  C   C20       1.0  0.22104876070644508  0.683641730749173  0.3812889757012454  1.0000
  C   C21       1.0  0.7632547654350077  0.8903109822668683  0.3274662578211006  1.0000
  C   C22       1.0  0.26325484384135217  0.10968856133769121  0.6725330775470721  1.0000
  C   C23       1.0  0.77343905225775  0.9423111091472267  0.23918791512785015  1.0000
  C   C24       1.0  0.2734379201470746  0.05768842359330511  0.7608107549772496  1.0000
  C   C25       1.0  0.7703928989921492  0.8275796926237364  0.16818376375228175  1.0000
  C   C26       1.0  0.2703930136266379  0.17241862312565814  0.8318162075024771  1.0000
  C   C27       1.0  0.7596599966006534  0.6602927115105429  0.1831296915781094  1.0000
  C   C28       1.0  0.2596584952689369  0.3397056168439221  0.8168702779449217  1.0000
  C   C29       1.0  0.7454272246702941  0.6100343973587388  0.2709978427284766  1.0000
  C   C30       1.0  0.24542150436249696  0.3899639466172574  0.7290027914040207  1.0000
  C   C31       1.0  0.7432175481610341  0.7234567474239313  0.34229155824344554  1.0000
  C   C32       1.0  0.24321736943129932  0.27654160023885777  0.6577084086269377  1.0000
  C   C33       1.0  0.757090541356625  0.5345536177660435  0.10790396893286666  1.0000
  C   C34       1.0  0.2570875578040627  0.46544593198411394  0.8920960323466216  1.0000
  N   N1        1.0  0.8121723979149921  0.5740444955119061  0.6908901840101789  1.0000
  N   N2        1.0  0.3121730766964673  0.42595499064615455  0.3091091592501981  1.0000
  N   N3        1.0  0.8467768869324315  0.13036618799782937  0.3965158588188799  1.0000
  N   N4        1.0  0.3467771510615735  0.8696332553326512  0.6034848238365382  1.0000
  N   N5        1.0  0.7634828798733863  0.994266585514858  0.4036754166025388  1.0000
  N   N6        1.0  0.2634816915061506  0.005731739445167201  0.5963238866312179  1.0000
  O   O1        1.0  0.6865474139552317  0.362260477891475  0.8958073955567014  1.0000
  O   O2        1.0  0.18654761633067804  0.6377403730761131  0.10419262651304707  1.0000
  O   O3        1.0  0.6617290920718945  0.9164916436078913  0.7183825386272245  1.0000
  O   O4        1.0  0.16172753571161277  0.0835067997512056  0.28161741509605775  1.0000
  O   O5        1.0  0.7485263209767438  0.5832190775981658  0.027686851486436095  1.0000
  O   O6        1.0  0.2485221155065247  0.41678292005995143  0.9723125458474154  1.0000
  O   O7        1.0  0.7588575414219034  0.3852584473540335  0.12701111942183016  1.0000
  O   O8        1.0  0.2588556811778702  0.6147411025106352  0.872987548330691  1.0000
  O   O9        1.0  0.9786938954160574  0.8010980006544558  0.9451820830223735  1.0000
  O   O10       1.0  0.4786947028416434  0.19890250723222644  0.05481798618105669  1.0000
  O   O11       1.0  0.4946617573551037  0.8076968686079485  0.9706744647280484  1.0000
  O   O12       1.0  0.9946638223885101  0.19230240324396422  0.029324907974476788  1.0000
