data_image0
_chemical_formula_structural       U4H50C38S2N24O34
_chemical_formula_sum              "U4 H50 C38 S2 N24 O34"
_cell_length_a       12.042226396253746
_cell_length_b       12.123566502547037
_cell_length_c       12.698633259498527
_cell_angle_alpha    71.350978494331
_cell_angle_beta     79.54461943754728
_cell_angle_gamma    75.14526897215521

_space_group_name_H-M_alt    "P 1"
_space_group_IT_number       1

loop_
  _space_group_symop_operation_xyz
  'x, y, z'

loop_
  _atom_site_type_symbol
  _atom_site_label
  _atom_site_symmetry_multiplicity
  _atom_site_fract_x
  _atom_site_fract_y
  _atom_site_fract_z
  _atom_site_occupancy
  U   U1        1.0  0.046951123076503586  0.009101104928596698  0.8460912328394272  1.0000
  U   U2        1.0  0.9530506764766998  0.9909007653897037  0.15390896563044257  1.0000
  U   U3        1.0  0.9654985319118056  0.351613456846927  0.5950869662135075  1.0000
  U   U4        1.0  0.03450446084549703  0.6483865850808571  0.40491203881096977  1.0000
  H   H1        1.0  0.8527214014995508  0.16250781736081177  0.7371153701680271  1.0000
  H   H2        1.0  0.1472800719805747  0.8374913344036232  0.2628834069329499  1.0000
  H   H3        1.0  0.09495478939198417  0.8126658693080703  0.04521193987413602  1.0000
  H   H4        1.0  0.9050458139789441  0.18733779206291254  0.9547878893571493  1.0000
  H   H5        1.0  0.8751531930959902  0.5867081063390529  0.6096504831688775  1.0000
  H   H6        1.0  0.12484962325693523  0.4132928076397704  0.3903474821344873  1.0000
  H   H7        1.0  0.7149231545055984  0.4368219186120117  0.682647209127424  1.0000
  H   H8        1.0  0.2850759607910903  0.5631764459464321  0.3173553942796588  1.0000
  H   H9        1.0  0.7971879162503372  0.4475318804662294  0.7583372984686606  1.0000
  H   H10       1.0  0.2028120439089562  0.5524664558105316  0.24166437607676267  1.0000
  H   H11       1.0  0.9315836606819448  0.11453306048060342  0.5310800791576681  1.0000
  H   H12       1.0  0.06841426141063782  0.885467132468364  0.4689237176948069  1.0000
  H   H13       1.0  0.013970974986236204  0.11026642728618441  0.3992069160079623  1.0000
  H   H14       1.0  0.9860244050731026  0.8897337571632352  0.6007957607195777  1.0000
  H   H15       1.0  0.4128731381210288  0.8838888257830891  0.5444257444054017  1.0000
  H   H16       1.0  0.5871266441448029  0.11611036387579084  0.45557410907692025  1.0000
  H   H17       1.0  0.2795933198310081  0.7595286391720182  0.5489654483982918  1.0000
  H   H18       1.0  0.7204069901588711  0.24046791566482287  0.45103674290538726  1.0000
  H   H19       1.0  0.08745208925537909  0.7360170008235583  0.8046191849113811  1.0000
  H   H20       1.0  0.9125483674250248  0.26398310728036023  0.19538182535610102  1.0000
  H   H21       1.0  0.11344443122619913  0.6874177388030134  0.6803381127627475  1.0000
  H   H22       1.0  0.8865554992192418  0.3125850227918577  0.319661341025359  1.0000
  H   H23       1.0  0.4438569757182762  0.449533797845156  0.5907781426157541  1.0000
  H   H24       1.0  0.5561443228465565  0.5504662446392389  0.4092203761060985  1.0000
  H   H25       1.0  0.30088467096679505  0.5370736778088486  0.5653863243020822  1.0000
  H   H26       1.0  0.6991162822347123  0.46292820212222113  0.4346140216874588  1.0000
  H   H27       1.0  0.15032640072477935  0.46751694883817396  0.7154891027927803  1.0000
  H   H28       1.0  0.8496732051366678  0.5324831128717519  0.28450971096842187  1.0000
  H   H29       1.0  0.13572005066678366  0.30165676518898726  0.8818771346339177  1.0000
  H   H30       1.0  0.8642795551946635  0.6983432965209317  0.11812167912728463  1.0000
  H   H31       1.0  0.07506574598251348  0.40015548653833144  0.12526477488273  1.0000
  H   H32       1.0  0.9249340362833184  0.5998437031205484  0.874735078599592  1.0000
  H   H33       1.0  0.08324073889215099  0.2736417482913326  0.07650239657876773  1.0000
  H   H34       1.0  0.9167581955329002  0.7263574323113957  0.923496823081244  1.0000
  H   H35       1.0  0.28545612217334343  0.10720388549886911  0.9630780744247005  1.0000
  H   H36       1.0  0.7145424653992978  0.8927971138816134  0.036922191161025415  1.0000
  H   H37       1.0  0.43194186169527177  0.11604489686543931  0.906631019455503  1.0000
  H   H38       1.0  0.5680562278671745  0.8839543120189648  0.09336912906617555  1.0000
  H   H39       1.0  0.243201522450761  0.0895437751284405  0.16218250975928328  1.0000
  H   H40       1.0  0.7567984362194482  0.9104545424793998  0.8378183834441513  1.0000
  H   H41       1.0  0.3586487284210735  0.0440868991715533  0.3184547609450449  1.0000
  H   H42       1.0  0.6413525746110197  0.9559131993195963  0.6815461018027591  1.0000
  H   H43       1.0  0.7016179495030884  0.6998553716030146  0.5739862289074225  1.0000
  H   H44       1.0  0.29838046166516824  0.3001464998285073  0.42601299695719064  1.0000
  H   H45       1.0  0.6268379417269828  0.8519217643079745  0.544312410923162  1.0000
  H   H46       1.0  0.37315979651579323  0.1480792073474362  0.4556864394982724  1.0000
  H   H47       1.0  0.340321420827749  0.974607143147097  0.801326698699924  1.0000
  H   H48       1.0  0.6596786815548086  0.025394690389980195  0.198671450783344  1.0000
  H   H49       1.0  0.4271250073991838  0.006481053816443697  0.6691137071783969  1.0000
  H   H50       1.0  0.5728754433248753  0.9935189796117929  0.33088417772115253  1.0000
  C   C1        1.0  0.004912881627788603  0.06386168513686391  0.4889842901202996  1.0000
  C   C2        1.0  0.9950808042390805  0.9361384998691592  0.5110179003046158  1.0000
  C   C3        1.0  0.27383121102069913  0.805793371150145  0.7725194698950729  1.0000
  C   C4        1.0  0.7261667110718903  0.1942068217988223  0.22748432695739496  1.0000
  C   C5        1.0  0.41409739902902476  0.8063503528171059  0.6192961626721284  1.0000
  C   C6        1.0  0.5859025581520926  0.1936479461218212  0.3807039491893249  1.0000
  C   C7        1.0  0.3299325706113694  0.726409659963615  0.621124528843872  1.0000
  C   C8        1.0  0.6700678875581262  0.2735904668092176  0.37887726276559863  1.0000
  C   C9        1.0  0.5199116935094709  0.613410743517939  0.6229840793043876  1.0000
  C   C10       1.0  0.480089959353208  0.38658757353329787  0.377017300201679  1.0000
  C   C11       1.0  0.14877594936695707  0.6811954410957812  0.7565887492497296  1.0000
  C   C12       1.0  0.8512236609617505  0.31880467662089984  0.24341240853743076  1.0000
  C   C13       1.0  0.36850308185196223  0.5078880780865448  0.6220142623355257  1.0000
  C   C14       1.0  0.6314977216808515  0.49211021123961285  0.3779857020062494  1.0000
  C   C15       1.0  0.14845744722965287  0.5245310310057861  0.9401344972535597  1.0000
  C   C16       1.0  0.8515423320580027  0.4754681213152524  0.05986379354479246  1.0000
  C   C17       1.0  0.20681756227275375  0.4600818543910421  0.7773827664418533  1.0000
  C   C18       1.0  0.7931813736413815  0.5399173448805996  0.22261723456014001  1.0000
  C   C19       1.0  0.20203497971196072  0.3497976786310915  0.881381261476335  1.0000
  C   C20       1.0  0.7979648010647795  0.6502014923588676  0.11861781066400574  1.0000
  C   C21       1.0  0.3875540616867781  0.325472047346537  0.7811447535555658  1.0000
  C   C22       1.0  0.61244639648271  0.6745280794262954  0.21885703805390483  1.0000
  C   C23       1.0  0.13160487582136682  0.3354163098352601  0.084628004963335  1.0000
  C   C24       1.0  0.8683949049553805  0.6645828611546991  0.9153710671769987  1.0000
  C   C25       1.0  0.3524434492398926  0.15901335344778295  0.9480245776867519  1.0000
  C   C26       1.0  0.6475553147371331  0.84098677388166  0.05197672762008671  1.0000
  C   C27       1.0  0.24170918114553078  0.3074491492942287  0.2395417175536778  1.0000
  C   C28       1.0  0.7582920877054492  0.6925553185082762  0.7604545804108653  1.0000
  C   C29       1.0  0.2961684415537817  0.15451913192844566  0.1526894820229501  1.0000
  C   C30       1.0  0.7038303209341525  0.845480976732077  0.8473110419419071  1.0000
  C   C31       1.0  0.3717342531434085  0.12431136741981426  0.2503599406470585  1.0000
  C   C32       1.0  0.6282670483995931  0.8756887124024146  0.7496401407587642  1.0000
  C   C33       1.0  0.49267636555892846  0.1278487432965107  0.08074735607677037  1.0000
  C   C34       1.0  0.507324756601527  0.8721521712389235  0.9192501229239696  1.0000
  C   C35       1.0  0.6337103793263527  0.763920108059665  0.6067818934512416  1.0000
  C   C36       1.0  0.366289054597985  0.23608088170804828  0.3932182246147988  1.0000
  C   C37       1.0  0.4103845432988395  0.9360672457583591  0.7465896695243187  1.0000
  C   C38       1.0  0.5896155605728098  0.0639346064476314  0.25340926130093777  1.0000
  S   S1        1.0  0.13108743642940376  0.0671352360671307  0.5421076801002087  1.0000
  S   S2        1.0  0.8689161003640251  0.9328575777002257  0.45788885142507507  1.0000
  N   N1        1.0  0.37028337391348043  0.8470594744679046  0.7179675928413046  1.0000
  N   N2        1.0  0.6297172561931249  0.15293972424712626  0.28203289446332747  1.0000
  N   N3        1.0  0.2527095599944219  0.7297474056253039  0.7231992664539532  1.0000
  N   N4        1.0  0.7472912480056523  0.2702509397076156  0.276803041913773  1.0000
  N   N5        1.0  0.4063485309129718  0.6126013894962696  0.6220688424814114  1.0000
  N   N6        1.0  0.5936529485235056  0.3873978369438405  0.3779330599875053  1.0000
  N   N7        1.0  0.5260391085967627  0.7257708001894799  0.6230047661330572  1.0000
  N   N8        1.0  0.47396152299893407  0.27422841719447183  0.37699650251355615  1.0000
  N   N9        1.0  0.16741755398031435  0.559404360420942  0.8243739564342789  1.0000
  N   N10       1.0  0.8325828997219205  0.44059571034513567  0.17562549114923337  1.0000
  N   N11       1.0  0.1744942628152941  0.4009489303153161  0.974901903798525  1.0000
  N   N12       1.0  0.8255036503427748  0.5990511506201345  0.02509720500203362  1.0000
  N   N13       1.0  0.3163242097155958  0.27566793995337235  0.8729967106103231  1.0000
  N   N14       1.0  0.6836747261985394  0.7243312593182697  0.12700329039167713  1.0000
  N   N15       1.0  0.32740189440918505  0.43990886102559307  0.7310995149757531  1.0000
  N   N16       1.0  0.6725978893457312  0.5600903473022073  0.2689011198485503  1.0000
  N   N17       1.0  0.220429059612627  0.2681810691739203  0.1576287042106728  1.0000
  N   N18       1.0  0.7795712191743152  0.7318198923121175  0.8423704849937154  1.0000
  N   N19       1.0  0.33175372337255743  0.2281782611473347  0.2930519613881799  1.0000
  N   N20       1.0  0.6682470519354882  0.7718244721658535  0.706946563538267  1.0000
  N   N21       1.0  0.48798511361050606  0.10953171928377968  0.19568455618857425  1.0000
  N   N22       1.0  0.5120141424203624  0.8904701238660592  0.804313740814372  1.0000
  N   N23       1.0  0.37975711002204804  0.15926557652026224  0.05485843703448269  1.0000
  N   N24       1.0  0.6202424958393993  0.8407344851896568  0.9451403767267194  1.0000
  O   O1        1.0  0.9463641143235153  0.9177694133006256  0.8489892176088601  1.0000
  O   O2        1.0  0.05363871245302221  0.082231631360635  0.1510142170883952  1.0000
  O   O3        1.0  0.1495866043599392  0.10078047905736302  0.8325660607309047  1.0000
  O   O4        1.0  0.8504165335988038  0.899223097468571  0.16743098191539474  1.0000
  O   O5        1.0  0.8802590089565643  0.3370658797238306  0.49651948189570305  1.0000
  O   O6        1.0  0.11974260972500167  0.6629368066387541  0.5034773328271029  1.0000
  O   O7        1.0  0.04116375904213495  0.3624747558596086  0.7008691416934666  1.0000
  O   O8        1.0  0.9588401082916324  0.6375208324683826  0.29913115522666095  1.0000
  O   O9        1.0  0.12389767601528939  0.9897965317511395  0.6590283224835077  1.0000
  O   O10       1.0  0.8761005914406255  0.010201823751153  0.340973647101265  1.0000
  O   O11       1.0  0.122262689219049  0.19286545093238067  0.5363221015257409  1.0000
  O   O12       1.0  0.87773980701715  0.8071328191682527  0.46367756777667063  1.0000
  O   O13       1.0  0.2319413572436702  0.0195223776919704  0.47478524485623547  1.0000
  O   O14       1.0  0.7680503113358269  0.9804751266546323  0.5252166005811247  1.0000
  O   O15       1.0  0.9342713926074283  0.16589896673816903  0.7217191984072284  1.0000
  O   O16       1.0  0.06573075082000913  0.8341010474645361  0.27827839145295746  1.0000
  O   O17       1.0  0.07592617056807432  0.8989531494985457  0.031679437068035596  1.0000
  O   O18       1.0  0.9240771482623062  0.10104961098311088  0.9683209893253277  1.0000
  O   O19       1.0  0.9050095382438955  0.5578159279140494  0.5425906641853614  1.0000
  O   O20       1.0  0.0949963463772434  0.4421823410733695  0.45740997772231395  1.0000
  O   O21       1.0  0.7866181821232773  0.39309504184443966  0.7192731033267705  1.0000
  O   O22       1.0  0.21338329582410862  0.6069041659267498  0.28072801780016476  1.0000
  O   O23       1.0  0.2118486898704504  0.8361408326589842  0.8531005904374424  1.0000
  O   O24       1.0  0.7881527850987597  0.16385833777436432  0.14689896800552296  1.0000
  O   O25       1.0  0.6028543488288064  0.5295465899623011  0.6188571687976747  1.0000
  O   O26       1.0  0.3971467807770779  0.470454417917722  0.38114421691298617  1.0000
  O   O27       1.0  0.11107883894990783  0.590854116149231  0.0004802832732834928  1.0000
  O   O28       1.0  0.88892161475232  0.40914595461684666  0.9995191643102288  1.0000
  O   O29       1.0  0.4841705498542198  0.27718604723139617  0.747254642108885  1.0000
  O   O30       1.0  0.5158316054859143  0.7228141163226666  0.2527491984871801  1.0000
  O   O31       1.0  0.18469270412957436  0.39970802977388337  0.263226087022538  1.0000
  O   O32       1.0  0.8153085632323214  0.6002964193597009  0.7367694296000237  1.0000
  O   O33       1.0  0.5808381111521046  0.11405945481988773  0.016640097843158196  1.0000
  O   O34       1.0  0.4191614932202583  0.8859405882211181  0.9833579345760697  1.0000
