data_image0
_chemical_formula_structural       Zn8H34C54O30
_chemical_formula_sum              "Zn8 H34 C54 O30"
_cell_length_a       18.257501553392142
_cell_length_b       18.457824917094026
_cell_length_c       18.457794241140764
_cell_angle_alpha    60.57740936274186
_cell_angle_beta     60.3578488483788
_cell_angle_gamma    60.357719737880096

_space_group_name_H-M_alt    "P 1"
_space_group_IT_number       1

loop_
  _space_group_symop_operation_xyz
  'x, y, z'

loop_
  _atom_site_type_symbol
  _atom_site_label
  _atom_site_symmetry_multiplicity
  _atom_site_fract_x
  _atom_site_fract_y
  _atom_site_fract_z
  _atom_site_occupancy
  Zn  Zn1       1.0  0.708306141963327  0.20155730255059726  0.38182484924070076  1.0000
  Zn  Zn2       1.0  0.11829903422413687  0.7939085609093015  0.7941907481787566  1.0000
  Zn  Zn3       1.0  0.8817021667957123  0.2058087429112093  0.20609039674809562  1.0000
  Zn  Zn4       1.0  0.2936082267407942  0.7939247674903954  0.7941883964041024  1.0000
  Zn  Zn5       1.0  0.7058438887553606  0.3758709212949541  0.21242912533698893  1.0000
  Zn  Zn6       1.0  0.29415030804086945  0.7875721029072694  0.6241312187823385  1.0000
  Zn  Zn7       1.0  0.2916940546803134  0.6181744169405406  0.7984425187485727  1.0000
  Zn  Zn8       1.0  0.7063938675293713  0.20581229063617465  0.2060754933768081  1.0000
  H   H1        1.0  0.5476252322710593  0.3310116746095775  0.5737163148063759  1.0000
  H   H2        1.0  0.4996342183789794  0.6137996609375167  0.2895211757377395  1.0000
  H   H3        1.0  0.5003868073626736  0.7104727959801809  0.38620574210045777  1.0000
  H   H4        1.0  0.5970591542201616  0.6137865765083178  0.2895160044885401  1.0000
  H   H5        1.0  0.16796763433544035  0.9272471919437565  0.43727456086550387  1.0000
  H   H6        1.0  0.5324983418436702  0.5627266180844259  0.07273781029454802  1.0000
  H   H7        1.0  0.46751260979256415  0.9272482009095527  0.4372713958986125  1.0000
  H   H8        1.0  0.8320241221655778  0.5627342688410482  0.07274896142063626  1.0000
  H   H9        1.0  0.4523672793062944  0.42628585793672613  0.66898958640175  1.0000
  H   H10       1.0  0.9309258446861148  0.9709355820468277  0.6604580452733515  1.0000
  H   H11       1.0  0.5623179723152134  0.33953746129714096  0.029065003163729872  1.0000
  H   H12       1.0  0.43768524714387524  0.9709296672579344  0.6604562726447226  1.0000
  H   H13       1.0  0.06906456088741211  0.33954742018975287  0.029074164828870232  1.0000
  H   H14       1.0  0.8404341825423671  0.06424916166983513  0.5590797618335728  1.0000
  H   H15       1.0  0.46375765210618175  0.4409165476427432  0.9357518623032846  1.0000
  H   H16       1.0  0.5362499819980115  0.06423891783548191  0.5590764109698443  1.0000
  H   H17       1.0  0.15956298239267844  0.44092086197005653  0.9357611062371873  1.0000
  H   H18       1.0  0.069336213114255  0.045492069423403315  0.05088560249553352  1.0000
  H   H19       1.0  0.16571844970578556  0.949105558156255  0.9544952029419351  1.0000
  H   H20       1.0  0.8342768689557333  0.04550906065136221  0.050889507953606083  1.0000
  H   H21       1.0  0.930660031899656  0.9491179384024662  0.9545025572388752  1.0000
  H   H22       1.0  0.02086931521446898  0.9734375588247418  0.29895802872115246  1.0000
  H   H23       1.0  0.12283142504421818  0.8928000799129311  0.3203448757497611  1.0000
  H   H24       1.0  0.12642128811204165  0.9811139414355737  0.21699526193897603  1.0000
  H   H25       1.0  0.3359775786385131  0.6796546849223832  0.10719507535775809  1.0000
  H   H26       1.0  0.29326204820351626  0.7010513453096368  0.02655224773142349  1.0000
  H   H27       1.0  0.40296183555784654  0.7104878564761566  0.38620941189721253  1.0000
  H   H28       1.0  0.32453614466665215  0.7830062797507442  0.01887638107191936  1.0000
  H   H29       1.0  0.6640492583239778  0.8927971452237388  0.32034375716941105  1.0000
  H   H30       1.0  0.7067493317811825  0.9734483410313717  0.2989491807586902  1.0000
  H   H31       1.0  0.6754901768975045  0.9811129346745349  0.21699066284593047  1.0000
  H   H32       1.0  0.9791281500460232  0.701052924611453  0.02655698710253083  1.0000
  H   H33       1.0  0.8771665780104317  0.6796662881335396  0.10719937270634704  1.0000
  H   H34       1.0  0.8735797251355638  0.7830112472969193  0.01888348600104441  1.0000
  C   C1        1.0  0.6115291861652777  0.3861053954360686  0.1133877112197368  1.0000
  C   C2        1.0  0.5174091194138767  0.5353705090472332  0.04318615150411646  1.0000
  C   C3        1.0  0.9540569293056935  0.5921953983866008  0.9922582581765554  1.0000
  C   C4        1.0  0.08987962682272886  0.9628279333315107  0.2880224655639978  1.0000
  C   C5        1.0  0.34073260720341386  0.7119789156126262  0.0371645962565664  1.0000
  C   C6        1.0  0.659292958263059  0.9628287930044835  0.28801656369739687  1.0000
  C   C7        1.0  0.9101214739833312  0.7119850846218726  0.03716868554994334  1.0000
  C   C8        1.0  0.48259295757687687  0.9568107509322065  0.4646221567481205  1.0000
  C   C9        1.0  0.9040194859479415  0.5353757250783674  0.0432034004973474  1.0000
  C   C10       1.0  0.09597418497590149  0.9567990116372301  0.4646323295468947  1.0000
  C   C11       1.0  0.055157183984207055  0.9433302313723004  0.5551161640675844  1.0000
  C   C12       1.0  0.5536026769001909  0.4448845749729885  0.056661504569937855  1.0000
  C   C13       1.0  0.4463983000282782  0.9433373341999601  0.5551092801841265  1.0000
  C   C14       1.0  0.11102590082297338  0.8865959657439149  0.6138972612861409  1.0000
  C   C15       1.0  0.9448347709060133  0.44489436095452833  0.056669665985069125  1.0000
  C   C16       1.0  0.9624424746961893  0.9818150370094403  0.5898382209485007  1.0000
  C   C17       1.0  0.5340997520233374  0.4101561524617737  0.0181783642252142  1.0000
  C   C18       1.0  0.46590464535356096  0.9818183823222243  0.5898367040910202  1.0000
  C   C19       1.0  0.03755131861357336  0.4101687749845056  0.018189411933313714  1.0000
  C   C20       1.0  0.8889625625929297  0.3861105399594608  0.11340398756148312  1.0000
  C   C21       1.0  0.9124464052486515  0.0332634441276483  0.5335337162728566  1.0000
  C   C22       1.0  0.4792504345357501  0.4664627176863761  0.9667282758041865  1.0000
  C   C23       1.0  0.5207606473645329  0.03326093817818079  0.5335313312490797  1.0000
  C   C24       1.0  0.08754905026812311  0.4664695082707696  0.9667452590355624  1.0000
  C   C25       1.0  0.38847088418666703  0.8866076566594929  0.6138942766078299  1.0000
  C   C26       1.0  0.9522373885168349  0.0476755859812741  0.44214049353850976  1.0000
  C   C27       1.0  0.44205086853492753  0.5578563126318701  0.9523242275072195  1.0000
  C   C28       1.0  0.5579591828201702  0.04766319530797602  0.44213911661840666  1.0000
  C   C29       1.0  0.04775644471354219  0.5578624386863211  0.9523346996402184  1.0000
  C   C30       1.0  0.039899829060239304  0.023574430561019703  0.02962802181112781  1.0000
  C   C31       1.0  0.09309864090771919  0.9703708236919228  0.9764231692499835  1.0000
  C   C32       1.0  0.9068939386103595  0.023581603964963404  0.029623629999150816  1.0000
  C   C33       1.0  0.9600961708503992  0.9703753632337425  0.976421100872926  1.0000
  C   C34       1.0  0.053452719773368226  0.9435913026649204  0.9494952955902961  1.0000
  C   C35       1.0  0.9465410823900555  0.05050462428366841  0.05640894750967362  1.0000
  C   C36       1.0  0.8930502947284821  0.10664805663424201  0.38653306316276587  1.0000
  C   C37       1.0  0.3862309243446802  0.613461249694524  0.8933516626238571  1.0000
  C   C38       1.0  0.6137744670137624  0.10663966997651643  0.38653386159843  1.0000
  C   C39       1.0  0.10694813698336962  0.6134700422663927  0.8933582346404451  1.0000
  C   C40       1.0  0.8893390456310115  0.10832981706766281  0.1129840351908983  1.0000
  C   C41       1.0  0.11065407238348983  0.8870174296579522  0.891669885962557  1.0000
  C   C42       1.0  0.6119757489110923  0.3817781848149196  0.3942386293534312  1.0000
  C   C43       1.0  0.388021784296349  0.6057642914057979  0.6182193939719061  1.0000
  C   C44       1.0  0.5267302612168268  0.5305785017486713  0.41595913456742295  1.0000
  C   C45       1.0  0.4732736838168565  0.5840447313236581  0.46942127731330163  1.0000
  C   C46       1.0  0.5550464701367163  0.43875340691128883  0.4511347219577999  1.0000
  C   C47       1.0  0.44495810521100765  0.5488706846413224  0.5612393640814164  1.0000
  C   C48       1.0  0.5266736382244801  0.40256201838358413  0.5440759038271494  1.0000
  C   C49       1.0  0.4733216865024231  0.45592498154478994  0.597436169036172  1.0000
  C   C50       1.0  0.46975506202801404  0.6688461986131531  0.39167470435086915  1.0000
  C   C51       1.0  0.530266378856645  0.6083244728138341  0.3311526725678036  1.0000
  C   C52       1.0  0.0459385038087632  0.007744933631450101  0.407811957323112  1.0000
  C   C53       1.0  0.46149630684472953  0.5921914244982247  0.9922438837409688  1.0000
  C   C54       1.0  0.5385125095633826  0.007748185054985902  0.40780437147833504  1.0000
  O   O1        1.0  0.7506355268619203  0.24661054062568877  0.25209995005996444  1.0000
  O   O2        1.0  0.1953925647916749  0.8587554907354971  0.5762109330821658  1.0000
  O   O3        1.0  0.8045954328163988  0.4237996279568464  0.1412433883483786  1.0000
  O   O4        1.0  0.3696152569708673  0.8587868687900697  0.5762026214703511  1.0000
  O   O5        1.0  0.8088470242200926  0.1285853412961089  0.42776674053010316  1.0000
  O   O6        1.0  0.36519974662182625  0.5722262029383745  0.871412794150217  1.0000
  O   O7        1.0  0.63481020537845  0.1285763816303884  0.4277664886543633  1.0000
  O   O8        1.0  0.19115050697192257  0.5722337663793271  0.8714197106147664  1.0000
  O   O9        1.0  0.2493615914237211  0.747902067922269  0.7533928425122413  1.0000
  O   O10       1.0  0.6353124937946432  0.1313252767851978  0.3030891635330236  1.0000
  O   O11       1.0  0.06972150995847667  0.6969152190828469  0.8686945370086792  1.0000
  O   O12       1.0  0.930276769743699  0.13130849449923696  0.3030884179684112  1.0000
  O   O13       1.0  0.3646846978194702  0.6969089453652303  0.8686750442670218  1.0000
  O   O14       1.0  0.9301433876830033  0.3031876822128439  0.12975761925292784  1.0000
  O   O15       1.0  0.36308499882908774  0.8702564430216528  0.6968186438036597  1.0000
  O   O16       1.0  0.6369130416353243  0.30318064826644797  0.12974322479674794  1.0000
  O   O17       1.0  0.06984745652559353  0.8702428549587755  0.6968207953334017  1.0000
  O   O18       1.0  0.8049266375280838  0.13057906568066363  0.13480540506481026  1.0000
  O   O19       1.0  0.0703259967556492  0.8651841686803439  0.869419639344045  1.0000
  O   O20       1.0  0.9296716273819142  0.1305817140428758  0.13481369221734962  1.0000
  O   O21       1.0  0.1950661694754459  0.8651973615334402  0.86942183787329  1.0000
  O   O22       1.0  0.6332998072849066  0.42225309214204293  0.3110859127656767  1.0000
  O   O23       1.0  0.3666849149539716  0.6889189617577289  0.5777387909738465  1.0000
  O   O24       1.0  0.6347795106632929  0.2982953690861835  0.43213664010983927  1.0000
  O   O25       1.0  0.6303831156305791  0.4237932091298831  0.14120768595329034  1.0000
  O   O26       1.0  0.36522337142243105  0.5678680447601183  0.7016998836952766  1.0000
  O   O27       1.0  0.0927233785940658  0.018137220644014514  0.3197627509853334  1.0000
  O   O28       1.0  0.43062004998515857  0.6802383950581117  0.9818525758728072  1.0000
  O   O29       1.0  0.5693880195624245  0.018132654278360905  0.31976127804605176  1.0000
  O   O30       1.0  0.9072751796805396  0.6802398007785371  0.9818620539893316  1.0000
