data_image0
_chemical_formula_structural       Zn2H34C50N2O10
_chemical_formula_sum              "Zn2 H34 C50 N2 O10"
_cell_length_a       11.029411347265944
_cell_length_b       18.262938923125397
_cell_length_c       19.150566471301648
_cell_angle_alpha    90.27859947872946
_cell_angle_beta     89.70914050649468
_cell_angle_gamma    90.2665994273825

_space_group_name_H-M_alt    "P 1"
_space_group_IT_number       1

loop_
  _space_group_symop_operation_xyz
  'x, y, z'

loop_
  _atom_site_type_symbol
  _atom_site_label
  _atom_site_symmetry_multiplicity
  _atom_site_fract_x
  _atom_site_fract_y
  _atom_site_fract_z
  _atom_site_occupancy
  Zn  Zn1       1.0  0.5151631277809372  0.4230803058725953  0.4981109337745551  1.0000
  Zn  Zn2       1.0  0.5153879904158244  0.5752010067410537  0.502655274512847  1.0000
  H   H1        1.0  0.9050202976270113  0.5659136627028689  0.5823541298551476  1.0000
  H   H2        1.0  0.13175019665616358  0.5654009868292037  0.5790884507378138  1.0000
  H   H3        1.0  0.3506159199740608  0.30719466914938204  0.444997340568257  1.0000
  H   H4        1.0  0.671751267326016  0.3060073236745922  0.5551680675265729  1.0000
  H   H5        1.0  0.3417775340873773  0.1704732420608153  0.4405120553647919  1.0000
  H   H6        1.0  0.6723009697761384  0.1693162420577679  0.5613555805766168  1.0000
  H   H7        1.0  0.7013781460467996  0.0662017410235975  0.5037292272249018  1.0000
  H   H8        1.0  0.31066808018902486  0.06581605947380349  0.4968145954627587  1.0000
  H   H9        1.0  0.7004206480461049  0.9315155512896638  0.5052113036818895  1.0000
  H   H10       1.0  0.3101158727851399  0.9310133616002715  0.49714033790345974  1.0000
  H   H11       1.0  0.354387641938068  0.8252572940706527  0.4320062534498987  1.0000
  H   H12       1.0  0.6572415570014057  0.8314870626682875  0.5745919731138756  1.0000
  H   H13       1.0  0.3645925493589174  0.6882612257666024  0.43707466673495077  1.0000
  H   H14       1.0  0.6560509967912509  0.6943762369658515  0.571613339515501  1.0000
  H   H15       1.0  0.7836741231954389  0.4273600091006955  0.3806828106978982  1.0000
  H   H16       1.0  0.23573812202245384  0.42845220083005847  0.37319213219704744  1.0000
  H   H17       1.0  0.8919087778547378  0.37096676220039637  0.28155779404858083  1.0000
  H   H18       1.0  0.11893744291013769  0.37191137447062056  0.277429014533169  1.0000
  H   H19       1.0  0.36234092052340827  0.6025083171119192  0.3029757384052941  1.0000
  H   H20       1.0  0.3699294930667989  0.6057679249670259  0.7015148697119785  1.0000
  H   H21       1.0  0.2832565913733376  0.606862798832168  0.1815016306354096  1.0000
  H   H22       1.0  0.2933431780146449  0.610595073163921  0.8239722487694933  1.0000
  H   H23       1.0  0.4701703133589916  0.40495095712808654  0.13684001322315  1.0000
  H   H24       1.0  0.458337791831937  0.40060960350307073  0.8608428830856312  1.0000
  H   H25       1.0  0.29203959672344126  0.39427137345008123  0.06527068325112848  1.0000
  H   H26       1.0  0.2915546326896248  0.39430115662860726  0.9362121752278867  1.0000
  H   H27       1.0  0.3764851183366957  0.6246352448437021  0.9371457712836673  1.0000
  H   H28       1.0  0.3753360966562553  0.6247397764912747  0.06597264650793729  1.0000
  H   H29       1.0  0.4520590535801787  0.3008718556072551  0.2346583512787674  1.0000
  H   H30       1.0  0.4543302369732771  0.3298840383794611  0.3248823848870614  1.0000
  H   H31       1.0  0.582839617506984  0.2839326951183665  0.28766501370826336  1.0000
  H   H32       1.0  0.43175422199120556  0.32655955963307554  0.6699120721387146  1.0000
  H   H33       1.0  0.42090106887410866  0.30104665646550904  0.7607145765732567  1.0000
  H   H34       1.0  0.5520384731477181  0.27605429276859883  0.7103244855793986  1.0000
  C   C1        1.0  0.4902864437149574  0.5003156744006603  0.636053245640717  1.0000
  C   C2        1.0  0.4974103318719685  0.5021219383893721  0.3639616946469033  1.0000
  C   C3        1.0  0.3693194472339697  0.5055198041586878  0.15006526983260218  1.0000
  C   C4        1.0  0.36841370361754133  0.5052926852877775  0.8516281880759279  1.0000
  C   C5        1.0  0.4410493238664088  0.4473971982568656  0.1734058176053779  1.0000
  C   C6        1.0  0.43271112738738526  0.4447189020086455  0.8257665767999212  1.0000
  C   C7        1.0  0.4854251478884493  0.445110531590828  0.2414516401624169  1.0000
  C   C8        1.0  0.4739071606973367  0.441664203803299  0.7568124927214868  1.0000
  C   C9        1.0  0.45698737092524067  0.5015011043029745  0.2892773647261393  1.0000
  C   C10       1.0  0.4512672814837443  0.5001279416300121  0.7111575106924731  1.0000
  C   C11       1.0  0.31147120204641243  0.44484855158827935  0.0371571623317024  1.0000
  C   C12       1.0  0.3113852013168312  0.44485277470185036  0.9645997486273428  1.0000
  C   C13       1.0  0.3399776634835163  0.5087000636194432  0.927009884925141  1.0000
  C   C14       1.0  0.339515338643622  0.5087975159641333  0.0750819509907856  1.0000
  C   C15       1.0  0.3548731232934088  0.5741787574249526  0.9649552022225122  1.0000
  C   C16       1.0  0.3543256469488085  0.5742743145298873  0.0377047277291283  1.0000
  C   C17       1.0  0.42077450947204637  0.27371540370641867  0.46875323493902954  1.0000
  C   C18       1.0  0.6002345742606607  0.27313331328643636  0.5311659767363253  1.0000
  C   C19       1.0  0.4158261983737503  0.19772042469096354  0.46780778875301365  1.0000
  C   C20       1.0  0.6003970159106586  0.19714042426007694  0.5332935111806661  1.0000
  C   C21       1.0  0.5072002096598069  0.1572256332165693  0.5005705817219024  1.0000
  C   C22       1.0  0.7514015793345976  0.4977894182881925  0.4976178981658705  1.0000
  C   C23       1.0  0.2776022169798438  0.4967129890262426  0.492743073637989  1.0000
  C   C24       1.0  0.6150304019076884  0.0369433006148441  0.5036632502745703  1.0000
  C   C25       1.0  0.39671183843541497  0.036680503264435095  0.49761418284271736  1.0000
  C   C26       1.0  0.6145936175549663  0.9608785992762209  0.5043852922716211  1.0000
  C   C27       1.0  0.39631496532008725  0.9605084172037193  0.49789992903010466  1.0000
  C   C28       1.0  0.5052578894193828  0.9211744225620535  0.5017145146420744  1.0000
  C   C29       1.0  0.5060658880505641  0.0764497949511238  0.5006511234046086  1.0000
  C   C30       1.0  0.4219127980515367  0.7987979424810875  0.46451566798780425  1.0000
  C   C31       1.0  0.5916744119114554  0.8022152221941282  0.5423813467994734  1.0000
  C   C32       1.0  0.4273647167822361  0.7228653241886035  0.4663365224674436  1.0000
  C   C33       1.0  0.5912930919632515  0.7261963572804075  0.5415811046470651  1.0000
  C   C34       1.0  0.5058980286848183  0.8404607329141385  0.5028911368824182  1.0000
  C   C35       1.0  0.8825000150323912  0.427192842695291  0.3797527644652021  1.0000
  C   C36       1.0  0.1370939176092847  0.42761926668111977  0.3754999888280465  1.0000
  C   C37       1.0  0.9432676851444979  0.39544611767193766  0.32432877029909685  1.0000
  C   C38       1.0  0.07145491832378778  0.3958893262904936  0.3221187150792915  1.0000
  C   C39       1.0  0.0777010330425583  0.46104361128856636  0.4334740354546298  1.0000
  C   C40       1.0  0.9472207073829535  0.4610997256076318  0.4353412461725553  1.0000
  C   C41       1.0  0.8869531209374486  0.49833794099332346  0.4912836642239569  1.0000
  C   C42       1.0  0.14229239256818  0.4979969824296688  0.4879087594039078  1.0000
  C   C43       1.0  0.9527842918360108  0.5363691866006872  0.5410283468787965  1.0000
  C   C44       1.0  0.0801037390061268  0.5361635094468085  0.5392790962475971  1.0000
  C   C45       1.0  0.38396038062367677  0.559161756481778  0.2657270183169871  1.0000
  C   C46       1.0  0.386718645056952  0.5606272660581624  0.7371586999758648  1.0000
  C   C47       1.0  0.3402620764370639  0.5614904205654624  0.19784284296712676  1.0000
  C   C48       1.0  0.34476091058915154  0.5633078406873012  0.8056915444533812  1.0000
  C   C49       1.0  0.5092239121795288  0.3224448763665606  0.2772604491663627  1.0000
  C   C50       1.0  0.482884517187557  0.318266732999966  0.7184225124343013  1.0000
  N   N1        1.0  0.5119401110643692  0.31078429891418585  0.49935945961090766  1.0000
  N   N2        1.0  0.5108806047830824  0.6872832767647878  0.5039641238567043  1.0000
  O   O1        1.0  0.48847850265998716  0.43944357892029723  0.6033518891055536  1.0000
  O   O2        1.0  0.5248523313961542  0.44117991354462294  0.39170933075025255  1.0000
  O   O3        1.0  0.5176884024121122  0.5622649942008379  0.6098454964100384  1.0000
  O   O4        1.0  0.4967373089626718  0.5639121661940864  0.3952195114025868  1.0000
  O   O5        1.0  0.6997560897978444  0.4356884014037589  0.5042296753331427  1.0000
  O   O6        1.0  0.32991384094210463  0.43526062377749497  0.48425492816041066  1.0000
  O   O7        1.0  0.699141592262329  0.5597448307042826  0.4968069729262083  1.0000
  O   O8        1.0  0.3299559833945693  0.557294908925776  0.5068594285279177  1.0000
  O   O9        1.0  0.5658111280295728  0.3900264102818127  0.25777178481202867  1.0000
  O   O10       1.0  0.5470498902089743  0.3838668456840679  0.7370416820897603  1.0000
