data_image0
_chemical_formula_structural       Ag6H48C90N12O18F42
_chemical_formula_sum              "Ag6 H48 C90 N12 O18 F42"
_cell_length_a       8.217003366819151
_cell_length_b       20.257714928435817
_cell_length_c       20.255432496389513
_cell_angle_alpha    118.19676684128333
_cell_angle_beta     97.7829495168621
_cell_angle_gamma    97.77068725502183

_space_group_name_H-M_alt    "P 1"
_space_group_IT_number       1

loop_
  _space_group_symop_operation_xyz
  'x, y, z'

loop_
  _atom_site_type_symbol
  _atom_site_label
  _atom_site_symmetry_multiplicity
  _atom_site_fract_x
  _atom_site_fract_y
  _atom_site_fract_z
  _atom_site_occupancy
  Ag  Ag1       1.0  0.6423239550915338  0.9605655185652181  0.46253887014120215  1.0000
  Ag  Ag2       1.0  0.18005985340998615  0.5375855965026588  0.498070993445218  1.0000
  Ag  Ag3       1.0  0.6818320383599428  0.5019595839659344  0.03939151860581095  1.0000
  Ag  Ag4       1.0  0.35767856773300366  0.039434727198767006  0.5374610080558925  1.0000
  Ag  Ag5       1.0  0.8199411515504452  0.462414073956623  0.5019290224645517  1.0000
  Ag  Ag6       1.0  0.3181677364480747  0.49804008646351855  0.9606089226667082  1.0000
  H   H1        1.0  0.7649096002745709  0.13098401576597496  0.5063167171503551  1.0000
  H   H2        1.0  0.25848299369464905  0.49361299074856657  0.6246800057272426  1.0000
  H   H3        1.0  0.6341816989505843  0.3752779581974721  0.8688967475790863  1.0000
  H   H4        1.0  0.23509255369975784  0.8690179557977586  0.49368494295548276  1.0000
  H   H5        1.0  0.7415180112657821  0.5063866797107154  0.3753200101825272  1.0000
  H   H6        1.0  0.3658180721917573  0.6247217122418293  0.1311046808850379  1.0000
  H   H7        1.0  0.19745187708944908  0.2334488919193589  0.6980314408690165  1.0000
  H   H8        1.0  0.4995360366420981  0.3020259493780273  0.5354781414731846  1.0000
  H   H9        1.0  0.9645222093014283  0.46452046456388263  0.7665650054901718  1.0000
  H   H10       1.0  0.8025494137498298  0.7665513538197359  0.30196935628662674  1.0000
  H   H11       1.0  0.5004640313760974  0.6979742963115357  0.46452110666198376  1.0000
  H   H12       1.0  0.03547698641754951  0.5354780553256617  0.23343584767381748  1.0000
  H   H13       1.0  0.1806927773773239  0.10148617405212688  0.6839222190986477  1.0000
  H   H14       1.0  0.49638565886652947  0.3160611149115056  0.41754224694771125  1.0000
  H   H15       1.0  0.07920369101999108  0.582457428248432  0.8985022328998229  1.0000
  H   H16       1.0  0.8193106860551181  0.8985134964717361  0.31607743968145047  1.0000
  H   H17       1.0  0.5036189554126409  0.6839408567118781  0.5824585624326418  1.0000
  H   H18       1.0  0.9207955101974862  0.4175410916263331  0.10149713947675565  1.0000
  H   H19       1.0  0.9439364869375596  0.9927829840562483  0.5835957336278741  1.0000
  H   H20       1.0  0.360184669573286  0.41642356465829516  0.4092159284593678  1.0000
  H   H21       1.0  0.950958218809866  0.5908639944807205  0.0071415454863056425  1.0000
  H   H22       1.0  0.0560694404653859  0.0072166865174168  0.4164020872351273  1.0000
  H   H23       1.0  0.6398169126433472  0.5835772563458264  0.5907841691547306  1.0000
  H   H24       1.0  0.04904307202941983  0.4091362512583671  0.9928592516693373  1.0000
  H   H25       1.0  0.8667197640859924  0.3822355046432051  0.6016865784023082  1.0000
  H   H26       1.0  0.26469123826537094  0.3983130489257789  0.7806787123196843  1.0000
  H   H27       1.0  0.4842157925289356  0.21930568982434553  0.617620223396216  1.0000
  H   H28       1.0  0.13328152858612424  0.6177647410909585  0.39831372515752855  1.0000
  H   H29       1.0  0.7353097666950601  0.6016866215335026  0.21932130359009244  1.0000
  H   H30       1.0  0.5157824662477991  0.78069340529548  0.38237986199316515  1.0000
  H   H31       1.0  0.06330361280417657  0.18284956484466613  0.4710152635494965  1.0000
  H   H32       1.0  0.5919229226010927  0.5288914014929701  0.7118211279136946  1.0000
  H   H33       1.0  0.880322317657061  0.28815074911015165  0.8171020977524465  1.0000
  H   H34       1.0  0.9366976780351022  0.8171506808944214  0.5289855336061465  1.0000
  H   H35       1.0  0.40807808235933857  0.4711082689663115  0.2881788879960753  1.0000
  H   H36       1.0  0.11967746081661797  0.7118489213094606  0.1828973563284607  1.0000
  H   H37       1.0  0.025446366541785875  0.21097841056501207  0.3629311293239611  1.0000
  H   H38       1.0  0.662594700859664  0.6369592280828371  0.8480419017676298  1.0000
  H   H39       1.0  0.8145048885490099  0.15198595225243852  0.7890276352254733  1.0000
  H   H40       1.0  0.9745518904021182  0.7890206845597375  0.6370694496612332  1.0000
  H   H41       1.0  0.3374063041007743  0.3630404423764446  0.151958114142147  1.0000
  H   H42       1.0  0.18549611641142852  0.8480137182068431  0.21097238068429658  1.0000
  H   H43       1.0  0.9150444162713073  0.3264760096304613  0.38134599337378466  1.0000
  H   H44       1.0  0.5337457926198751  0.6186028357837187  0.9451575318884269  1.0000
  H   H45       1.0  0.5885740968857363  0.0548590017248856  0.6735115584261778  1.0000
  H   H46       1.0  0.08495507265785547  0.6735230855191857  0.6186536666528611  1.0000
  H   H47       1.0  0.46625492462887763  0.381396259400681  0.05484219637128264  1.0000
  H   H48       1.0  0.41142539204342643  0.9451400934247615  0.32648810160046793  1.0000
  C   C1        1.0  0.8607146319005706  0.12777020596822547  0.5469602173680743  1.0000
  C   C2        1.0  0.3136811728138865  0.4530125214463254  0.580839749392986  1.0000
  C   C3        1.0  0.7331995636510699  0.41913943985626645  0.8721529544484882  1.0000
  C   C4        1.0  0.1392872361949101  0.8722311903157021  0.45304066149189753  1.0000
  C   C5        1.0  0.686317087795686  0.5469865736685691  0.4191598424005961  1.0000
  C   C6        1.0  0.26679992161242433  0.5808596553032289  0.12784769276976254  1.0000
  C   C7        1.0  0.9847605018994654  0.19207089269380617  0.6029419217774645  1.0000
  C   C8        1.0  0.3817944992354256  0.3970556884301076  0.5891794514883417  1.0000
  C   C9        1.0  0.7930631126617556  0.41078704339205524  0.8078696945607718  1.0000
  C   C10       1.0  0.01524165024203209  0.8079310788748512  0.3970602319241792  1.0000
  C   C11       1.0  0.6182055632842631  0.6029445572742275  0.41082127743424485  1.0000
  C   C12       1.0  0.20693637076890778  0.589212051772364  0.19213144625328488  1.0000
  C   C13       1.0  0.10078896435404518  0.18355197148395058  0.654158275317343  1.0000
  C   C14       1.0  0.446680634038202  0.3458790990433229  0.5294625363626366  1.0000
  C   C15       1.0  0.9176291563236274  0.4705254228473591  0.816416377144762  1.0000
  C   C16       1.0  0.8992153585477779  0.8164494248744063  0.3458432336045548  1.0000
  C   C17       1.0  0.5533194303143248  0.6541211466560883  0.47053769896413683  1.0000
  C   C18       1.0  0.08237249970019168  0.5294730971018352  0.1835836252937426  1.0000
  C   C19       1.0  0.09125339522844199  0.1110723909202704  0.6463710470898081  1.0000
  C   C20       1.0  0.4446816524427959  0.3536225951462981  0.46473227798598066  1.0000
  C   C21       1.0  0.9803208525898129  0.535268678166702  0.8888892376065415  1.0000
  C   C22       1.0  0.9087494134749432  0.8889284301235206  0.35362961235316  1.0000
  C   C23       1.0  0.5553208722145726  0.646377650612763  0.535267106615308  1.0000
  C   C24       1.0  0.01967863450651212  0.4647304169878695  0.11111091601591046  1.0000
  C   C25       1.0  0.9612921399059857  0.050233599937008884  0.590598003240885  1.0000
  C   C26       1.0  0.37051869352170996  0.40940498839541567  0.4596655810266201  1.0000
  C   C27       1.0  0.911045597731885  0.5403653596673054  0.9497037910982018  1.0000
  C   C28       1.0  0.038714069710145786  0.9497666459263102  0.40940158605958765  1.0000
  C   C29       1.0  0.6294810849519691  0.5905946820241965  0.540333873054287  1.0000
  C   C30       1.0  0.08895605829193433  0.4596331602818892  0.05029621134030291  1.0000
  C   C31       1.0  0.9903284143688255  0.2703254625128295  0.6131051891750021  1.0000
  C   C32       1.0  0.37698774941361524  0.386883272814302  0.6572673403849054  1.0000
  C   C33       1.0  0.7200694349457207  0.34271784275127715  0.7296006864325123  1.0000
  C   C34       1.0  0.009673453726655587  0.7296759337710983  0.38689568968496985  1.0000
  C   C35       1.0  0.6230120272272259  0.6131163976102271  0.34273260729180083  1.0000
  C   C36       1.0  0.2799293992543852  0.6572824029183124  0.2703999742570035  1.0000
  C   C37       1.0  0.9032248856715838  0.34334469370252657  0.5495989302769148  1.0000
  C   C38       1.0  0.3532520096462762  0.4503885350204301  0.793827490641448  1.0000
  C   C39       1.0  0.5596953978918648  0.20617432303937022  0.6565604134305334  1.0000
  C   C40       1.0  0.09677640516769494  0.656655552036568  0.45040186687872824  1.0000
  C   C41       1.0  0.6467489971469861  0.5496111354339276  0.20617203167252282  1.0000
  C   C42       1.0  0.44030408920446  0.7938247721152009  0.3434397401919114  1.0000
  C   C43       1.0  0.9631266386699123  0.27978308024179205  0.544262226378038  1.0000
  C   C44       1.0  0.4184709557302853  0.4557080721885924  0.7355763913787784  1.0000
  C   C45       1.0  0.6831341929774979  0.2644198406063722  0.7201394013059925  1.0000
  C   C46       1.0  0.036874939881052136  0.7202177407721777  0.45573885842767237  1.0000
  C   C47       1.0  0.581528822743394  0.5442915982310126  0.2644230627021287  1.0000
  C   C48       1.0  0.31686341290301806  0.7355804050284647  0.27986119115046654  1.0000
  C   C49       1.0  0.007780238598108688  0.2306438874413104  0.47623261940760403  1.0000
  C   C50       1.0  0.5312359616581901  0.5237052935413117  0.754426255243999  1.0000
  C   C51       1.0  0.7769677730733164  0.24557498869476996  0.769321500653014  1.0000
  C   C52       1.0  0.9922225682724384  0.7693569336074119  0.5237685336311629  1.0000
  C   C53       1.0  0.4687638168154892  0.47629437687830045  0.24557319883690817  1.0000
  C   C54       1.0  0.2230304875362563  0.7544241064201245  0.2306780911405682  1.0000
  C   C55       1.0  0.9899162331103711  0.24686995453701843  0.4163681969209136  1.0000
  C   C56       1.0  0.573487189679284  0.5835663280632203  0.8305087727594156  1.0000
  C   C57       1.0  0.7429850052602447  0.16950614859467805  0.753129393348921  1.0000
  C   C58       1.0  0.01008325398595389  0.7531291406175598  0.5836319567015309  1.0000
  C   C59       1.0  0.4265116481864908  0.4164339175965139  0.16949090073849504  1.0000
  C   C60       1.0  0.2570141959572325  0.8304923712800943  0.24686997902765756  1.0000
  C   C61       1.0  0.9291574524397531  0.31082391725772845  0.425968401359576  1.0000
  C   C62       1.0  0.5031294566432861  0.5739919567159716  0.8848808828014115  1.0000
  C   C63       1.0  0.6183073756305076  0.11512866799576929  0.6891695838629134  1.0000
  C   C64       1.0  0.0708420364894096  0.6891751778919257  0.5740312586670698  1.0000
  C   C65       1.0  0.4968718378616614  0.42600828901326787  0.1151189271626194  1.0000
  C   C66       1.0  0.38169334161823787  0.8848704271886304  0.3108301443967889  1.0000
  C   C67       1.0  0.613305281194627  0.8952250063258732  0.5695926768709116  1.0000
  C   C68       1.0  0.04430302867815067  0.4305326672616446  0.3256896501607046  1.0000
  C   C69       1.0  0.7182658604152576  0.6743235809440548  0.10486739852582629  1.0000
  C   C70       1.0  0.3866947831578996  0.10477523937353789  0.430407558455869  1.0000
  C   C71       1.0  0.9556985517056446  0.569468153747401  0.6743109410491999  1.0000
  C   C72       1.0  0.28173543042402116  0.32567666479504  0.8951333986298169  1.0000
  C   C73       1.0  0.5696056843017273  0.8586651244514699  0.6199849617287045  1.0000
  C   C74       1.0  0.9500149411244293  0.3801010773664472  0.23876442889373814  1.0000
  C   C75       1.0  0.7110168463500058  0.7612449885459257  0.14139325631740735  1.0000
  C   C76       1.0  0.4303937308202422  0.14133627175311153  0.3800147934735351  1.0000
  C   C77       1.0  0.049985409106952185  0.6198997436127768  0.7612365876789016  1.0000
  C   C78       1.0  0.28897953304375074  0.23875525704923453  0.8586067743101824  1.0000
  C   C79       1.0  0.5416648703481569  0.9163106349125981  0.6998732357735805  1.0000
  C   C80       1.0  0.8421013610105207  0.3002259053660055  0.21653810206377955  1.0000
  C   C81       1.0  0.6254043996525098  0.7834351426503829  0.0836819653009115  1.0000
  C   C82       1.0  0.45833245148634205  0.08368903543750864  0.3001260818412065  1.0000
  C   C83       1.0  0.15790145135853345  0.6997749156679446  0.7834615701875763  1.0000
  C   C84       1.0  0.3745929240148271  0.2165645276947927  0.9163168587180693  1.0000
  C   C85       1.0  0.5369119074035849  0.8867804926286807  0.7585929249256297  1.0000
  C   C86       1.0  0.7785808404181725  0.2415486267566962  0.1282690677317292  1.0000
  C   C87       1.0  0.649958275304904  0.8716586081654255  0.11314356078155197  1.0000
  C   C88       1.0  0.46308418611133106  0.1132191776866662  0.24140632445608656  1.0000
  C   C89       1.0  0.2214210350086389  0.7584527695075279  0.8717298367450256  1.0000
  C   C90       1.0  0.3500378273741731  0.12834106212530116  0.8868532206211485  1.0000
  N   N1        1.0  0.8471348962760743  0.05851950049630969  0.5421878186349147  1.0000
  N   N2        1.0  0.3048676388629303  0.45781910841984097  0.5163662649558561  1.0000
  N   N3        1.0  0.7887015704955258  0.4836529330372557  0.9414096076530502  1.0000
  N   N4        1.0  0.1528679142601417  0.9414813205425644  0.45781234721224723  1.0000
  N   N5        1.0  0.6951324273224273  0.5421811372746461  0.4836334767751113  1.0000
  N   N6        1.0  0.21129972034376007  0.5163473127018322  0.05859118950258598  1.0000
  N   N7        1.0  0.8864062233597565  0.35853981674985397  0.4916159058118838  1.0000
  N   N8        1.0  0.3946300147263031  0.5083856605723795  0.8669951518138463  1.0000
  N   N9        1.0  0.5277756879602292  0.1330163864734644  0.6414063077939007  1.0000
  N   N10       1.0  0.11359355144826098  0.6414598536795991  0.5083845354606285  1.0000
  N   N11       1.0  0.6053709884012974  0.4916140098918262  0.13300535769172947  1.0000
  N   N12       1.0  0.47222257081651253  0.866982708646354  0.35859377759548766  1.0000
  O   O1        1.0  0.019289020779488866  0.3264225256495976  0.6785929486786985  1.0000
  O   O2        1.0  0.34043363900032375  0.3213958359162845  0.6478632644890042  1.0000
  O   O3        1.0  0.6927807924611075  0.3521238128816648  0.6735127479051998  1.0000
  O   O4        1.0  0.9807140756355748  0.6735788706690826  0.3214079984143369  1.0000
  O   O5        1.0  0.6595673659601144  0.6786038345429971  0.3521367514207655  1.0000
  O   O6        1.0  0.3072186946352176  0.6478752822729064  0.326487405717245  1.0000
  O   O7        1.0  0.503780884636903  0.9294034717252728  0.5587634692177732  1.0000
  O   O8        1.0  0.94560746932315  0.4414956102031197  0.37071358365234636  1.0000
  O   O9        1.0  0.5745727104159499  0.629288160566901  0.0706824024007916  1.0000
  O   O10       1.0  0.4962188975024375  0.0705961986844841  0.44123499767152213  1.0000
  O   O11       1.0  0.054392882741055325  0.5585052107711732  0.6292869393244942  1.0000
  O   O12       1.0  0.4254276416482553  0.3707126604073919  0.9293181205760491  1.0000
  O   O13       1.0  0.7444576231700637  0.8851204298081967  0.5448140896201965  1.0000
  O   O14       1.0  0.20026185531218485  0.4552148149979728  0.3403241992579425  1.0000
  O   O15       1.0  0.8595963025151859  0.6597066924893794  0.11500130041628863  1.0000
  O   O16       1.0  0.25554424125974856  0.11488096648558609  0.4551877764313802  1.0000
  O   O17       1.0  0.7997397250716176  0.5447860060110727  0.6596763919519618  1.0000
  O   O18       1.0  0.14040224397324141  0.34029297790532803  0.8849990726231668  1.0000
  F   F1        1.0  0.4225561463927362  0.8016473770981987  0.5798512754167718  1.0000
  F   F2        1.0  0.8429589113825813  0.42017715651982  0.22185736855833235  1.0000
  F   F3        1.0  0.6208798289214457  0.7781420184742628  0.19835693989256953  1.0000
  F   F4        1.0  0.577445802841268  0.1983517181111054  0.42014753388438925  1.0000
  F   F5        1.0  0.15704512747322494  0.579823664553807  0.7781428655218934  1.0000
  F   F6        1.0  0.3791177787919083  0.22185822715565  0.8016431589680837  1.0000
  F   F7        1.0  0.6934076453916872  0.8239014577703473  0.6329505511934246  1.0000
  F   F8        1.0  0.060717738041724055  0.3671267414978416  0.1909939234882501  1.0000
  F   F9        1.0  0.8695577608485509  0.8090052771217627  0.17618585995729324  1.0000
  F   F10       1.0  0.30658873766774514  0.17609878781496488  0.36704849224256014  1.0000
  F   F11       1.0  0.9392832632530457  0.6328729289712883  0.8090070796131246  1.0000
  F   F12       1.0  0.1304386240437125  0.19099496845862518  0.8238126898828853  1.0000
  F   F13       1.0  0.6718995744372549  0.9807395503495825  0.7333561851794601  1.0000
  F   F14       1.0  0.9387727691253855  0.2666910065482782  0.2474660160531599  1.0000
  F   F15       1.0  0.6913198030449834  0.7525170317789148  0.01928389363533983  1.0000
  F   F16       1.0  0.3280983947949707  0.0192589695002852  0.26664410615565975  1.0000
  F   F17       1.0  0.06122635645206736  0.7333098143863381  0.7525339450948183  1.0000
  F   F18       1.0  0.3086784593974272  0.24748206333105577  0.9807152045624435  1.0000
  F   F19       1.0  0.3931952095127187  0.9374813179992074  0.6907133751755411  1.0000
  F   F20       1.0  0.7028086793013557  0.30936329313040284  0.2468505745465138  1.0000
  F   F21       1.0  0.4557894757808468  0.7530442047401918  0.06242451108828111  1.0000
  F   F22       1.0  0.6068005962905119  0.0625177770412648  0.30928558655611493  1.0000
  F   F23       1.0  0.2971926170364298  0.6906369525939126  0.7531487418217183  1.0000
  F   F24       1.0  0.5442075583419663  0.24695489033503287  0.9375745188764386  1.0000
  F   F25       1.0  0.6900550047032538  0.8786846972733073  0.7834125855076696  1.0000
  F   F26       1.0  0.9068925896653112  0.21682125335672708  0.09531634478112494  1.0000
  F   F27       1.0  0.8111596338830722  0.9046982722935225  0.1213853297312113  1.0000
  F   F28       1.0  0.3099401482037507  0.12131554828217621  0.21658688329105052  1.0000
  F   F29       1.0  0.09310834148792681  0.7831807181574818  0.9046837663042384  1.0000
  F   F30       1.0  0.1888349490990677  0.0953008226974248  0.87861208297997  1.0000
  F   F31       1.0  0.4250810539877533  0.81793061350416  0.7256137348189642  1.0000
  F   F32       1.0  0.6995719589106386  0.2745299867442696  0.09243994241069946  1.0000
  F   F33       1.0  0.606687150411858  0.9074981995673284  0.18193451115521247  1.0000
  F   F34       1.0  0.5749150358614942  0.18206905682104946  0.27438650175436413  1.0000
  F   F35       1.0  0.3004329485787166  0.7254725601392236  0.9075596738323102  1.0000
  F   F36       1.0  0.39330468272092384  0.092500320094004  0.8180639582271924  1.0000
  F   F37       1.0  0.48711414765408984  0.9377337439007363  0.820408874434641  1.0000
  F   F38       1.0  0.6670722866508854  0.17966427553157163  0.11735369378170195  1.0000
  F   F39       1.0  0.5492183848248756  0.8824242419536361  0.06208338768295369  1.0000
  F   F40       1.0  0.512882233572505  0.06226650168949991  0.1795906625971497  1.0000
  F   F41       1.0  0.33292561427264644  0.8203365453584439  0.8826452119416006  1.0000
  F   F42       1.0  0.4507750473105361  0.11757255193778347  0.9379128744279586  1.0000
