data_image0
_chemical_formula_structural       Cd2H24C36S2N4O14
_chemical_formula_sum              "Cd2 H24 C36 S2 N4 O14"
_cell_length_a       7.731533099277823
_cell_length_b       9.092461509999431
_cell_length_c       13.064742247344194
_cell_angle_alpha    74.69615321933972
_cell_angle_beta     88.28373648333358
_cell_angle_gamma    74.63578729635098

_space_group_name_H-M_alt    "P 1"
_space_group_IT_number       1

loop_
  _space_group_symop_operation_xyz
  'x, y, z'

loop_
  _atom_site_type_symbol
  _atom_site_label
  _atom_site_symmetry_multiplicity
  _atom_site_fract_x
  _atom_site_fract_y
  _atom_site_fract_z
  _atom_site_occupancy
  Cd  Cd1       1.0  0.9899623257241147  0.940201368821924  0.36966701959915604  1.0000
  Cd  Cd2       1.0  0.010039982019186804  0.059796803916462686  0.6303326704682136  1.0000
  H   H1        1.0  0.14997670582802414  0.4643772153351333  0.6287448203798365  1.0000
  H   H2        1.0  0.8500222931707029  0.5356233173357265  0.3712545028529065  1.0000
  H   H3        1.0  0.46242584221795374  0.40813896929411425  0.3575258135013756  1.0000
  H   H4        1.0  0.5375781285703455  0.5918580173160776  0.6424755917886885  1.0000
  H   H5        1.0  0.5708364334506799  0.03611393410970719  0.6492877215062907  1.0000
  H   H6        1.0  0.42916165118698774  0.9638854000789576  0.35071489974435394  1.0000
  H   H7        1.0  0.3348384486137235  0.7062245886578821  0.801010354315558  1.0000
  H   H8        1.0  0.6651637068373547  0.2937783194255345  0.19898847460798666  1.0000
  H   H9        1.0  0.23250111488963662  0.47335510851905127  0.9065654519348956  1.0000
  H   H10       1.0  0.7674991771484799  0.5266454272478284  0.09343384580293453  1.0000
  H   H11       1.0  0.2849547280963948  0.6329410334459453  0.18825780183291843  1.0000
  H   H12       1.0  0.7150431912399784  0.3670630453306883  0.8117416605658295  1.0000
  H   H13       1.0  0.3932651459042587  0.8511149314816252  0.07109575440355799  1.0000
  H   H14       1.0  0.6067334917615668  0.14888678425148066  0.9289033599169516  1.0000
  H   H15       1.0  0.22596594824474178  0.25772706083294133  0.00776056334409251  1.0000
  H   H16       1.0  0.7740339694514021  0.7422746672391296  0.9922362277734397  1.0000
  H   H17       1.0  0.1301149418109944  0.035796778958449196  0.12976902475894292  1.0000
  H   H18       1.0  0.8698872049673698  0.9642061352869289  0.8702282723592135  1.0000
  H   H19       1.0  0.0372692764280771  0.26483503605836484  0.36997802036687943  1.0000
  H   H20       1.0  0.9627339586853481  0.7351643259192712  0.6300206693906603  1.0000
  H   H21       1.0  0.12456339294660522  0.4976943099550722  0.2586166865581277  1.0000
  H   H22       1.0  0.8754361720893444  0.5023085950172825  0.7413814274525523  1.0000
  H   H23       1.0  0.4046633786618302  0.8806003344101679  0.8884352514618714  1.0000
  H   H24       1.0  0.5953352633403526  0.11940137824196027  0.11156462876132883  1.0000
  C   C1        1.0  0.3526717275383007  0.24206648222214255  0.6489531597209751  1.0000
  C   C2        1.0  0.6473276414660417  0.7579328612245034  0.3510479042293754  1.0000
  C   C3        1.0  0.25440193381471954  0.3920780693200924  0.5916734396733718  1.0000
  C   C4        1.0  0.7455974308532732  0.6079212772075309  0.4083268583742878  1.0000
  C   C5        1.0  0.2931950460267956  0.45251540326545125  0.4861741081715183  1.0000
  C   C6        1.0  0.7068059730134737  0.5474827632959461  0.5138263732934549  1.0000
  C   C7        1.0  0.4292876375973123  0.3606406628218791  0.43901910184148835  1.0000
  C   C8        1.0  0.5707150358152475  0.6393563237732776  0.5609815630407979  1.0000
  C   C9        1.0  0.529493567721694  0.21111272898609454  0.4971698206773355  1.0000
  C   C10       1.0  0.4705061582791929  0.7888854344792758  0.5028306862825503  1.0000
  C   C11       1.0  0.49159066339910157  0.1512869120612946  0.6032101486332807  1.0000
  C   C12       1.0  0.5084096416480792  0.8487136144626389  0.3967914468126141  1.0000
  C   C13       1.0  0.6825111613308581  0.11982598599539782  0.44711271080215925  1.0000
  C   C14       1.0  0.3174905847115709  0.8801698113605098  0.5528889543899639  1.0000
  C   C15       1.0  0.19552011032554623  0.6183018175648415  0.4271923525893656  1.0000
  C   C16       1.0  0.8044761022264524  0.3816951504692481  0.5728092056701827  1.0000
  C   C17       1.0  0.32220031533326937  0.6801369272413922  0.8870061737410992  1.0000
  C   C18       1.0  0.6777986880018151  0.3198636023484837  0.11299391539432692  1.0000
  C   C19       1.0  0.2640434673152258  0.5538338205105972  0.9471854577256169  1.0000
  C   C20       1.0  0.7359561020570808  0.44616908138078054  0.05281342218775364  1.0000
  C   C21       1.0  0.24762076297393085  0.5323809547452355  0.057298016489618  1.0000
  C   C22       1.0  0.7523804607706667  0.46762076717990897  0.9427010468410659  1.0000
  C   C23       1.0  0.2927336304757446  0.6418435442032473  0.10330700160219662  1.0000
  C   C24       1.0  0.7072646458571796  0.3581593545921108  0.8966919038060869  1.0000
  C   C25       1.0  0.3513781655310666  0.7653836024549321  0.039748689680962526  1.0000
  C   C26       1.0  0.6486230625498806  0.23461811638922817  0.960251139552412  1.0000
  C   C27       1.0  0.18767563605766213  0.3974262953371193  0.12374730726465094  1.0000
  C   C28       1.0  0.8123242903111888  0.6025754265729899  0.8762510156582624  1.0000
  C   C29       1.0  0.18627450241967844  0.26528609461470154  0.0874723890217695  1.0000
  C   C30       1.0  0.8137237695768891  0.7347168072616411  0.9125257504838232  1.0000
  C   C31       1.0  0.1332837247474572  0.1401528131903973  0.1550655633670672  1.0000
  C   C32       1.0  0.8667158359521354  0.8598500948629423  0.8449317847409221  1.0000
  C   C33       1.0  0.08073523244588192  0.26741841656488663  0.2894801091710805  1.0000
  C   C34       1.0  0.9192667009554474  0.7325809484786986  0.7105170742759912  1.0000
  C   C35       1.0  0.13098317135271742  0.39718418972496744  0.22685049438156574  1.0000
  C   C36       1.0  0.8690180437191659  0.6028175383621387  0.7731470371437371  1.0000
  S   S1        1.0  0.2960679398618993  0.17030257461637888  0.7826383514311887  1.0000
  S   S2        1.0  0.703931067809542  0.8296979518925126  0.2173625036069353  1.0000
  N   N1        1.0  0.3640050673465182  0.7816821199074439  0.9344387012438562  1.0000
  N   N2        1.0  0.635993940324923  0.21831840660144758  0.06556215379426793  1.0000
  N   N3        1.0  0.08294874771064545  0.14006587820265534  0.25443950495076006  1.0000
  N   N4        1.0  0.9170530420711744  0.859938216023991  0.7455583491578681  1.0000
  O   O1        1.0  0.8026862778908284  0.006498682379287897  0.5081382778861896  1.0000
  O   O2        1.0  0.19731604719789422  0.9934994780351831  0.4918644757919353  1.0000
  O   O3        1.0  0.6915451721257142  0.15468202163874165  0.3471382819632539  1.0000
  O   O4        1.0  0.308455428833206  0.8453090403571081  0.6528635039649161  1.0000
  O   O5        1.0  0.23113964673129322  0.6757394753463755  0.3326340325213267  1.0000
  O   O6        1.0  0.7688574975271864  0.3242586788459859  0.6673672913310754  1.0000
  O   O7        1.0  0.07880770971235765  0.6966592175038072  0.47924479106289664  1.0000
  O   O8        1.0  0.9211898002153805  0.3033377505453174  0.5207575076044293  1.0000
  O   O9        1.0  0.249739655417116  0.30555954369290106  0.8280311703087619  1.0000
  O   O10       1.0  0.7502593479179682  0.6944409858969749  0.1719689188266642  1.0000
  O   O11       1.0  0.4572448164596354  0.045953811555314396  0.8361365032846211  1.0000
  O   O12       1.0  0.5427554842511881  0.9540467180496037  0.163864326258583  1.0000
  O   O13       1.0  0.14317233437746787  0.10200952287447505  0.779070784298945  1.0000
  O   O14       1.0  0.8568288893671222  0.8979921990506692  0.22092827903173892  1.0000
