data_image0
_chemical_formula_structural       Ag4H60C44N18O8
_chemical_formula_sum              "Ag4 H60 C44 N18 O8"
_cell_length_a       7.582052888743496
_cell_length_b       11.493690205713932
_cell_length_c       15.148440865644815
_cell_angle_alpha    74.41268476435879
_cell_angle_beta     82.56647798100076
_cell_angle_gamma    88.03758154918681

_space_group_name_H-M_alt    "P 1"
_space_group_IT_number       1

loop_
  _space_group_symop_operation_xyz
  'x, y, z'

loop_
  _atom_site_type_symbol
  _atom_site_label
  _atom_site_symmetry_multiplicity
  _atom_site_fract_x
  _atom_site_fract_y
  _atom_site_fract_z
  _atom_site_occupancy
  Ag  Ag1       1.0  0.9116803241096747  0.6383504001445816  0.5313038536503993  1.0000
  Ag  Ag2       1.0  0.0883034397904936  0.3616507018648747  0.46869811763179564  1.0000
  Ag  Ag3       1.0  0.2999655128432721  0.18294766847492377  0.8773612012675114  1.0000
  Ag  Ag4       1.0  0.7000354846630044  0.8170563170696071  0.12263841420676866  1.0000
  H   H1        1.0  0.6523640750947733  0.07601563522866431  0.4800688115823135  1.0000
  H   H2        1.0  0.34764612108350684  0.923993856769954  0.5199297630836452  1.0000
  H   H3        1.0  0.763825686041791  0.8103184141739775  0.3973229901594521  1.0000
  H   H4        1.0  0.23617141426675653  0.1896810163414244  0.602677791720545  1.0000
  H   H5        1.0  0.6165218021027029  0.9368225877160016  0.39037134317766226  1.0000
  H   H6        1.0  0.3834699224085938  0.06317950805645721  0.6096279322603309  1.0000
  H   H7        1.0  0.5619557182988473  0.7954650001745878  0.47162968727909044  1.0000
  H   H8        1.0  0.4380466464187761  0.20453718808399665  0.5283708602458147  1.0000
  H   H9        1.0  0.8868185806843911  0.17852394497143825  0.6482650264949683  1.0000
  H   H10       1.0  0.1131836546901752  0.8214845573097522  0.3517355830755448  1.0000
  H   H11       1.0  0.6567752340626992  0.145413200905729  0.6712198996668589  1.0000
  H   H12       1.0  0.34322969905451123  0.8545935050306427  0.3287835359317269  1.0000
  H   H13       1.0  0.7483859542225273  0.22384091527212752  0.5578545057615469  1.0000
  H   H14       1.0  0.2516204381913169  0.776159489719497  0.4421487789499278  1.0000
  H   H15       1.0  0.7240047189591508  0.8280346380980322  0.8268097284328488  1.0000
  H   H16       1.0  0.2759805233479682  0.17195924767082724  0.17319425475741915  1.0000
  H   H17       1.0  0.6104813877669101  0.042665638329836504  0.9548408874004435  1.0000
  H   H18       1.0  0.38952247273482493  0.9573284548025357  0.04515788637089457  1.0000
  H   H19       1.0  0.686852810107325  0.1279847377139944  0.8418678699383477  1.0000
  H   H20       1.0  0.3131497393585859  0.8720084310902438  0.15813249453002234  1.0000
  H   H21       1.0  0.7953376645886294  0.988016358289336  0.8918312183696102  1.0000
  H   H22       1.0  0.20465692407357483  0.011975820797481202  0.10817118100332117  1.0000
  H   H23       1.0  0.4427534920903397  0.6962745003284355  0.6926217551643318  1.0000
  H   H24       1.0  0.5572237517701452  0.30372021417795747  0.30738192015907356  1.0000
  H   H25       1.0  0.4595703317660592  0.6218396768718295  0.8099662870465919  1.0000
  H   H26       1.0  0.5404161663642311  0.378157834611322  0.1900368873972127  1.0000
  H   H27       1.0  0.6517140027291148  0.6873364899105852  0.7375961587791335  1.0000
  H   H28       1.0  0.3482592514632187  0.31265818131664264  0.2624084440084289  1.0000
  H   H29       1.0  0.8529644250891691  0.33441083499170793  0.11965051375971567  1.0000
  H   H30       1.0  0.14705388034619193  0.6655924174058827  0.8803481267512651  1.0000
  H   H31       1.0  0.916048348806555  0.21615628428072145  0.920249399469476  1.0000
  H   H32       1.0  0.08395800519407709  0.7838459553481912  0.07974889871197627  1.0000
  H   H33       1.0  0.7760072517381643  0.2072451351034702  0.02578031418263289  1.0000
  H   H34       1.0  0.2239911406884686  0.7927561309903344  0.9742173751447817  1.0000
  H   H35       1.0  0.9523150288493553  0.1011919436430873  0.020923404151496128  1.0000
  H   H36       1.0  0.04768596846434288  0.8988120459470254  0.9790755503831361  1.0000
  H   H37       1.0  0.14008321962143805  0.5774637350081734  0.14761598894322245  1.0000
  H   H38       1.0  0.8599350304086923  0.4225422228211642  0.8523827725786786  1.0000
  H   H39       1.0  0.11180284928402529  0.4405568144652748  0.23471075934366326  1.0000
  H   H40       1.0  0.8882156418624871  0.5594373982500614  0.7652910028090217  1.0000
  H   H41       1.0  0.9255533788162964  0.5067577322850596  0.18172784936366773  1.0000
  H   H42       1.0  0.07446897207759659  0.4932428498687784  0.8182710645515241  1.0000
  H   H43       1.0  0.41169789372270305  0.37620594747635044  0.5384641474917939  1.0000
  H   H44       1.0  0.5882951055295178  0.6237988627601326  0.4615358210552713  1.0000
  H   H45       1.0  0.6980226898322428  0.4060614017614483  0.6055202394490634  1.0000
  H   H46       1.0  0.30197293052876967  0.5939452773591968  0.39447324300567027  1.0000
  H   H47       1.0  0.5907836419112087  0.5272824460094514  0.6404293955551876  1.0000
  H   H48       1.0  0.4092027239874269  0.47272144018000994  0.35956392683949895  1.0000
  H   H49       1.0  0.13515721825957872  0.803699723458273  0.7095480165834472  1.0000
  H   H50       1.0  0.864838495727298  0.19630241963891853  0.29044967045073367  1.0000
  H   H51       1.0  0.11743444688415387  0.704455471630297  0.641702665757492  1.0000
  H   H52       1.0  0.8825626719569895  0.2955430557260001  0.3582982960987451  1.0000
  H   H53       1.0  0.5654473103338516  0.4465740787497837  0.9493163446267726  1.0000
  H   H54       1.0  0.4345578046430488  0.5534236684159454  0.050676993820552164  1.0000
  H   H55       1.0  0.5135130261577388  0.3466120940130041  0.8860608073274674  1.0000
  H   H56       1.0  0.486489393194823  0.6533874049961598  0.11393697542791867  1.0000
  H   H57       1.0  0.09204878295651746  0.10284242568336315  0.786880058325458  1.0000
  H   H58       1.0  0.90796028616392  0.8971571387151016  0.2131172802224128  1.0000
  H   H59       1.0  0.03496865327549869  0.991715300526778  0.7353327170762325  1.0000
  H   H60       1.0  0.9650296293035436  0.0082913562026192  0.264668518971277  1.0000
  C   C1        1.0  0.9425625524764241  0.8465904101297074  0.6247282836123773  1.0000
  C   C2        1.0  0.05743194371534338  0.15340628070707404  0.37527387681900126  1.0000
  C   C3        1.0  0.8073011134421008  0.03440030663821861  0.5956197006859654  1.0000
  C   C4        1.0  0.1926959119657496  0.9656027526959506  0.40437771753047236  1.0000
  C   C5        1.0  0.7302947019885123  0.008707625241491702  0.523785707900174  1.0000
  C   C6        1.0  0.26971682375819467  0.9913018879261417  0.47621145604497866  1.0000
  C   C7        1.0  0.7577809153645557  0.8949261724768222  0.5086734549603661  1.0000
  C   C8        1.0  0.24222143024275058  0.10507693107761906  0.49132492976935527  1.0000
  C   C9        1.0  0.6715207201136693  0.8584258537797709  0.4372995729615709  1.0000
  C   C10       1.0  0.328477617485454  0.14157810560904244  0.5627002201957154  1.0000
  C   C11       1.0  0.7742598553762149  0.15215886946889873  0.6191425744556156  1.0000
  C   C12       1.0  0.22574251030427914  0.8478432985617916  0.3808612777675363  1.0000
  C   C13       1.0  0.2687706844170065  0.9663019720254838  0.7946150251960019  1.0000
  C   C14       1.0  0.7312263965886527  0.0336983778313495  0.2053829329491634  1.0000
  C   C15       1.0  0.5431117019422658  0.9704376955441494  0.8467338454022482  1.0000
  C   C16       1.0  0.45688020847275357  0.029555356500473803  0.15326921261710416  1.0000
  C   C17       1.0  0.5921154643402174  0.866621039284553  0.8189449768674489  1.0000
  C   C18       1.0  0.40787118282116797  0.13336923074340493  0.18106228114487516  1.0000
  C   C19       1.0  0.46868464969987406  0.8142713473613269  0.779924318936068  1.0000
  C   C20       1.0  0.5313032708544225  0.18572166544971944  0.2200790056077935  1.0000
  C   C21       1.0  0.6674550547033532  0.03485370992463291  0.8861195333796913  1.0000
  C   C22       1.0  0.3325408448021036  0.9651393975358931  0.11388061435655311  1.0000
  C   C23       1.0  0.5080331316810386  0.6996343144369632  0.7524373251404197  1.0000
  C   C24       1.0  0.4919414350877105  0.3003612487537596  0.24757097446728685  1.0000
  C   C25       1.0  0.3193786858320492  0.3663343540997915  0.9901896429738738  1.0000
  C   C26       1.0  0.6806237146027667  0.6336660561596404  0.009806637925976183  1.0000
  C   C27       1.0  0.11168299436693016  0.42037180537501956  0.09873013058429335  1.0000
  C   C28       1.0  0.8883313961083984  0.5796277789702345  0.9012721401147484  1.0000
  C   C29       1.0  0.9869633451572495  0.3430639407402438  0.08309745707793331  1.0000
  C   C30       1.0  0.01304834699771359  0.6569374520865738  0.9169000047740992  1.0000
  C   C31       1.0  0.03834171535908129  0.277979032940678  0.018693262905564674  1.0000
  C   C32       1.0  0.9616619231365957  0.7220258900098386  0.9813046730301734  1.0000
  C   C33       1.0  0.912804745520347  0.19620691933185702  0.9955745881267358  1.0000
  C   C34       1.0  0.08719627013338277  0.8037961711447253  0.004423885444488475  1.0000
  C   C35       1.0  0.06878079629723291  0.49122924050180244  0.16843693422415373  1.0000
  C   C36       1.0  0.9312415738995481  0.5087704223106047  0.831564803425877  1.0000
  C   C37       1.0  0.28158789959599057  0.5316115772147967  0.5679482296761762  1.0000
  C   C38       1.0  0.7183999089924099  0.4683868707332267  0.43205137125163867  1.0000
  C   C39       1.0  0.45078771487336405  0.4632424373336975  0.546907013161636  1.0000
  C   C40       1.0  0.5492026800695058  0.5367596372697464  0.45309367299715564  1.0000
  C   C41       1.0  0.5663810716068481  0.44102955660762455  0.6251947033068104  1.0000
  C   C42       1.0  0.4336133680242609  0.5589698639343866  0.37480361249759386  1.0000
  C   C43       1.0  0.4863077051346777  0.35331112830242983  0.7151332071142061  1.0000
  C   C44       1.0  0.5137093815427105  0.6466866920626515  0.28486660209571807  1.0000
  N   N1        1.0  0.8617728479669109  0.8125818981286272  0.5597363550906492  1.0000
  N   N2        1.0  0.13822292258063126  0.18741751526334136  0.4402651765704987  1.0000
  N   N3        1.0  0.056829538656728594  0.7699825665031884  0.6710453402905399  1.0000
  N   N4        1.0  0.9431621675145435  0.23002042838279382  0.3289544161108536  1.0000
  N   N5        1.0  0.9120336307096863  0.9538329452219898  0.645719455576092  1.0000
  N   N6        1.0  0.0879581505548543  0.0461664167996574  0.3542843254285089  1.0000
  N   N7        1.0  0.20516615209606925  0.287231419472704  0.97350322162697  1.0000
  N   N8        1.0  0.7948402936047001  0.7127663245885572  0.02649267173745068  1.0000
  N   N9        1.0  0.48367877517714664  0.37875520129136936  0.9441314764943056  1.0000
  N   N10       1.0  0.5163223317915707  0.6212434017087248  0.05586327038058409  1.0000
  N   N11       1.0  0.2752376752572018  0.4324187308514951  0.0517370923267038  1.0000
  N   N12       1.0  0.7247687158086291  0.5675817024591937  0.9482615658072291  1.0000
  N   N13       1.0  0.37932511716588374  0.019034670977667603  0.836405245980913  1.0000
  N   N14       1.0  0.6206759355530451  0.980966613180698  0.16359358754279174  1.0000
  N   N15       1.0  0.10715186294387277  0.0167185161900392  0.7813251579693555  1.0000
  N   N16       1.0  0.8928558028628826  0.9832846315846809  0.21867419327364948  1.0000
  N   N17       1.0  0.3084455323172576  0.8651472864917693  0.7669919873728828  1.0000
  N   N18       1.0  0.6915488901292549  0.13485300889028912  0.23301077503282389  1.0000
  O   O1        1.0  0.13320441269757305  0.4934217697582072  0.5529530614235085  1.0000
  O   O2        1.0  0.8667794450210378  0.5065747921822137  0.44705377537778174  1.0000
  O   O3        1.0  0.29502468715728003  0.6267408187489211  0.5929421208677537  1.0000
  O   O4        1.0  0.7049750340674876  0.3732604846962247  0.4070515139802708  1.0000
  O   O5        1.0  0.5871913601076668  0.31941994016833064  0.7788571119740337  1.0000
  O   O6        1.0  0.4128246369622274  0.6805661381872027  0.221143142949586  1.0000
  O   O7        1.0  0.3265192970041752  0.31922776798381153  0.7212712021979397  1.0000
  O   O8        1.0  0.673492322175832  0.680777213205957  0.2787295053870124  1.0000
