data_image0
_chemical_formula_structural       Zn4H28C48O20
_chemical_formula_sum              "Zn4 H28 C48 O20"
_cell_length_a       7.656109221787217
_cell_length_b       12.226974136898255
_cell_length_c       12.227025519358868
_cell_angle_alpha    85.28282690538568
_cell_angle_beta     86.5543560990932
_cell_angle_gamma    86.5544546775969

_space_group_name_H-M_alt    "P 1"
_space_group_IT_number       1

loop_
  _space_group_symop_operation_xyz
  'x, y, z'

loop_
  _atom_site_type_symbol
  _atom_site_label
  _atom_site_symmetry_multiplicity
  _atom_site_fract_x
  _atom_site_fract_y
  _atom_site_fract_z
  _atom_site_occupancy
  Zn  Zn1       1.0  0.5659548839203979  0.7646640544950003  0.7022515714149974  1.0000
  Zn  Zn2       1.0  0.9340461870429236  0.297748261911643  0.23533871494687725  1.0000
  Zn  Zn3       1.0  0.434046918085734  0.23533672655597124  0.29774877847295034  1.0000
  Zn  Zn4       1.0  0.0659530053070085  0.7022525220862974  0.7646625602310875  1.0000
  H   H1        1.0  0.3060310701339546  0.05268558385341041  0.5381460929640696  1.0000
  H   H2        1.0  0.19397011357517607  0.4618528812575067  0.9473143741608038  1.0000
  H   H3        1.0  0.693972179281424  0.9473135236452851  0.46185190459116393  1.0000
  H   H4        1.0  0.806030294318212  0.5381487060199107  0.05268513760289297  1.0000
  H   H5        1.0  0.7886805447980549  0.20927213076983966  0.5602727605602381  1.0000
  H   H6        1.0  0.7113185816694308  0.43972731988752417  0.7907287979099135  1.0000
  H   H7        1.0  0.2113199491083292  0.7907286460661712  0.43972764367942563  1.0000
  H   H8        1.0  0.2886819851633504  0.5602726237533134  0.20927086563253983  1.0000
  H   H9        1.0  0.9305065381996798  0.9387818703029256  0.7936151345055503  1.0000
  H   H10       1.0  0.5694936469118658  0.2063845773016055  0.06121800309922069  1.0000
  H   H11       1.0  0.0694941875724879  0.06121642970133222  0.20638468081565967  1.0000
  H   H12       1.0  0.43050430372140613  0.7936153579093174  0.9387817691466578  1.0000
  H   H13       1.0  0.5100478861527334  0.13340863238706654  0.6268636523596527  1.0000
  H   H14       1.0  0.9899510458978609  0.3731360164184708  0.8665909100523093  1.0000
  H   H15       1.0  0.4899515380629821  0.8665896747791212  0.37313703389985853  1.0000
  H   H16       1.0  0.010046977661808398  0.6268630855972789  0.13340812149635883  1.0000
  H   H17       1.0  0.5902729958738389  0.23736550580386515  0.7020253596779394  1.0000
  H   H18       1.0  0.9097247777190559  0.2979752104230969  0.7626337736543078  1.0000
  H   H19       1.0  0.4097251136988333  0.7626327857704785  0.2979745643466955  1.0000
  H   H20       1.0  0.09027455394036821  0.7020238958076066  0.23736520354265164  1.0000
  H   H21       1.0  0.5051249159689206  0.9976038056693215  0.8821956762021727  1.0000
  H   H22       1.0  0.994871823960686  0.11780198385011431  0.0023938479214891044  1.0000
  H   H23       1.0  0.4948731206773544  0.0023953191001950995  0.11780498851967278  1.0000
  H   H24       1.0  0.00512612667259302  0.8821979513608086  0.9976059243243892  1.0000
  H   H25       1.0  0.24999779718082485  0.9827261228405324  0.017271746513813472  1.0000
  H   H26       1.0  0.7500001599957496  0.0172738237472743  0.9827288423186499  1.0000
  H   H27       1.0  0.24999914312414254  0.28256484401691045  0.7174354501703916  1.0000
  H   H28       1.0  0.7500001950785843  0.7174342735906764  0.2825643436131528  1.0000
  C   C1        1.0  0.1324946973264929  0.9853492077888364  0.6695653573951289  1.0000
  C   C2        1.0  0.36750460111093725  0.330433121562642  0.01465083224337599  1.0000
  C   C3        1.0  0.8675060153590763  0.014649069461654602  0.33043282475290425  1.0000
  C   C4        1.0  0.6324946641653924  0.6695668292401252  0.9853497022373785  1.0000
  C   C5        1.0  0.17703660004926997  0.05933199431362372  0.5800431849898615  1.0000
  C   C6        1.0  0.3229624346372617  0.41995835738570986  0.9406680168863273  1.0000
  C   C7        1.0  0.8229640527965001  0.9406671388858076  0.419957371028559  1.0000
  C   C8        1.0  0.6770379863427253  0.5800432526454672  0.05933312805054668  1.0000
  C   C9        1.0  0.053422302028643294  0.14013133836510866  0.5431123005623489  1.0000
  C   C10       1.0  0.4465779347884505  0.4568885383501709  0.8598692210430698  1.0000
  C   C11       1.0  0.946579572903886  0.8598686094906827  0.4568873086283957  1.0000
  C   C12       1.0  0.5534224796482407  0.5431130603041298  0.14013110730721215  1.0000
  C   C13       1.0  0.8839344078979535  0.14772900826527294  0.5937412996841543  1.0000
  C   C14       1.0  0.6160668443891166  0.40625836004393534  0.8522708000929382  1.0000
  C   C15       1.0  0.1160674735778784  0.8522709509674087  0.40625912609317527  1.0000
  C   C16       1.0  0.3839337289869675  0.5937415949737855  0.14772968003610026  1.0000
  C   C17       1.0  0.8425587505038267  0.07575192960051423  0.6853240792927479  1.0000
  C   C18       1.0  0.6574395584935216  0.3146756223998183  0.9242488572368044  1.0000
  C   C19       1.0  0.1574418163289549  0.9242480140403235  0.3146755842497057  1.0000
  C   C20       1.0  0.34255970023950505  0.6853243170260582  0.07575086065735798  1.0000
  C   C21       1.0  0.9669796358810032  0.9946681472167856  0.723135697694566  1.0000
  C   C22       1.0  0.5330191281371055  0.2768646982507691  0.005331784419382798  1.0000
  C   C23       1.0  0.0330197023217167  0.005330970390801301  0.2768640960889783  1.0000
  C   C24       1.0  0.4669813657692786  0.7231360785852421  0.9946686198202809  1.0000
  C   C25       1.0  0.2605757693639319  0.8959804687985694  0.7066271305087851  1.0000
  C   C26       1.0  0.23942508596537238  0.2933721703011757  0.10402051657148087  1.0000
  C   C27       1.0  0.7394248040121453  0.1040194862191512  0.29337334962025347  1.0000
  C   C28       1.0  0.7605767225840696  0.7066286221266795  0.8959806499030589  1.0000
  C   C29       1.0  0.5471844213766416  0.1522895915428251  0.7089525433293671  1.0000
  C   C30       1.0  0.952814551466126  0.291047089511892  0.8477093451711823  1.0000
  C   C31       1.0  0.4528149168260783  0.8477095260647688  0.2910472504541771  1.0000
  C   C32       1.0  0.047184780193298075  0.7089520167188116  0.15228963202577708  1.0000
  C   C33       1.0  0.3945739734300985  0.1415394436674688  0.7919161514838391  1.0000
  C   C34       1.0  0.10542426021201831  0.20808249578669094  0.8584586848291806  1.0000
  C   C35       1.0  0.6054253647726281  0.8584596739401251  0.20808364229970513  1.0000
  C   C36       1.0  0.8945749919777127  0.7919174322623025  0.14154021647839693  1.0000
  C   C37       1.0  0.3935332548719828  0.056756714286002805  0.8761803170272059  1.0000
  C   C38       1.0  0.1064645743065  0.12381784397890533  0.9432414840531178  1.0000
  C   C39       1.0  0.6064660898740399  0.9432424146984746  0.12382029334292347  1.0000
  C   C40       1.0  0.8935346049568336  0.8761829172652615  0.05675815795166972  1.0000
  C   C41       1.0  0.24999868379019569  0.04853062129241441  0.9514667464197328  1.0000
  C   C42       1.0  0.7500005749428311  0.9514693181334627  0.048532971474436644  1.0000
  C   C43       1.0  0.2500000448854465  0.21658589937083417  0.7834134243307601  1.0000
  C   C44       1.0  0.7499992998605761  0.7834132296136433  0.21658718603936922  1.0000
  C   C45       1.0  0.1034157765774921  0.21562072573748037  0.44531214740871405  1.0000
  C   C46       1.0  0.39658757238256476  0.5546894881916347  0.784380644153309  1.0000
  C   C47       1.0  0.8965871745890083  0.7843817031650246  0.5546879963487683  1.0000
  C   C48       1.0  0.6034140772274839  0.4453129478727932  0.21562037054247432  1.0000
  O   O1        1.0  0.41345852742003325  0.8928040576635397  0.6577495745638727  1.0000
  O   O2        1.0  0.08654185723199247  0.3422505903776809  0.10719551407240858  1.0000
  O   O3        1.0  0.5865433475124958  0.10719589019225854  0.342250034626872  1.0000
  O   O4        1.0  0.913458709600789  0.6577493532631565  0.8928041494700448  1.0000
  O   O5        1.0  0.21809330868473603  0.8246521977886021  0.784903781696002  1.0000
  O   O6        1.0  0.28190801827047096  0.21509618836778097  0.1753490162865603  1.0000
  O   O7        1.0  0.7819072581480383  0.17534774585223545  0.21509588184645875  1.0000
  O   O8        1.0  0.7180937837356607  0.7849045926831909  0.8246513336013945  1.0000
  O   O9        1.0  0.2661929280324102  0.22792569636726517  0.42599611269248777  1.0000
  O   O10       1.0  0.23381051340177086  0.5740059322498825  0.7720737460644213  1.0000
  O   O11       1.0  0.7338115761862198  0.7720742826722147  0.574005020968009  1.0000
  O   O12       1.0  0.7661924377647295  0.4259964966526226  0.22792639769306788  1.0000
  O   O13       1.0  0.9789552853199694  0.2621449388306872  0.3902112936693383  1.0000
  O   O14       1.0  0.5210480639618781  0.6097894129916173  0.7378577556470984  1.0000
  O   O15       1.0  0.0210476723898267  0.7378575014487013  0.6097896666747359  1.0000
  O   O16       1.0  0.47895643371345636  0.39021055467097926  0.26214256142681336  1.0000
  O   O17       1.0  0.6864648004713985  0.07708907444514071  0.7445916876589108  1.0000
  O   O18       1.0  0.8135335495324297  0.255406944011952  0.922909991786902  1.0000
  O   O19       1.0  0.3135345311880257  0.9229100317855627  0.2554072895380486  1.0000
  O   O20       1.0  0.1864657821269944  0.7445921622187515  0.07708898541005735  1.0000
