data_image0
_chemical_formula_structural       Zn2H38C30S2N6O14
_chemical_formula_sum              "Zn2 H38 C30 S2 N6 O14"
_cell_length_a       4.87863436400608
_cell_length_b       10.39946664043601
_cell_length_c       17.632443041492497
_cell_angle_alpha    92.17590070706038
_cell_angle_beta     90.00017872480949
_cell_angle_gamma    89.99996445693571

_space_group_name_H-M_alt    "P 1"
_space_group_IT_number       1

loop_
  _space_group_symop_operation_xyz
  'x, y, z'

loop_
  _atom_site_type_symbol
  _atom_site_label
  _atom_site_symmetry_multiplicity
  _atom_site_fract_x
  _atom_site_fract_y
  _atom_site_fract_z
  _atom_site_occupancy
  Zn  Zn1       1.0  0.9279095019579059  0.7788821401863755  0.8610665330531974  1.0000
  Zn  Zn2       1.0  0.42790726959862  0.22111850086045584  0.13893365861978424  1.0000
  H   H1        1.0  0.6163413828689173  0.44331467977364253  0.5698128291090327  1.0000
  H   H2        1.0  0.11633994274759364  0.5566850765876835  0.4301876435588596  1.0000
  H   H3        1.0  0.6437091525978076  0.6417146272434875  0.49646829922716057  1.0000
  H   H4        1.0  0.1437047026784555  0.3582870553924379  0.5035333696189639  1.0000
  H   H5        1.0  0.9624485489812283  0.8022015151919387  0.6232917232970082  1.0000
  H   H6        1.0  0.4624469800358851  0.19779910952325241  0.3767073635390972  1.0000
  H   H7        1.0  0.9309259264323372  0.6046132279392393  0.6964499230437228  1.0000
  H   H8        1.0  0.43092327096874783  0.39539030739900477  0.303551463069752  1.0000
  H   H9        1.0  0.524444049851695  0.8791809464471354  0.4941841832116937  1.0000
  H   H10       1.0  0.024439939636671695  0.12081785704285856  0.5058144898709784  1.0000
  H   H11       1.0  0.2043936036382306  0.9331579766797586  0.5330302248125492  1.0000
  H   H12       1.0  0.7043923315544731  0.06684270481554927  0.46696807358302556  1.0000
  H   H13       1.0  0.21291403490817368  0.8296147444119197  0.45071547560388586  1.0000
  H   H14       1.0  0.7129135545272476  0.17038304825470615  0.5492827726871213  1.0000
  H   H15       1.0  0.33053776127389517  0.8995566958402531  0.9369075072677971  1.0000
  H   H16       1.0  0.8305318886231632  0.10044396408380855  0.06309203370875593  1.0000
  H   H17       1.0  0.10190270123984389  0.0068793111296088  0.946371062796658  1.0000
  H   H18       1.0  0.6018975913860274  0.9931204445459796  0.0536288302692043  1.0000
  H   H19       1.0  0.0782167212926979  0.4928068382772323  0.8130547287822338  1.0000
  H   H20       1.0  0.5782137578179275  0.5071929148011661  0.18694400953394563  1.0000
  H   H21       1.0  0.5487691278979412  0.4218074422273687  0.9188747081899891  1.0000
  H   H22       1.0  0.0487698708280391  0.578191367800322  0.081125687416133  1.0000
  H   H23       1.0  0.24392161426204237  0.5038555837178008  0.9446324366891902  1.0000
  H   H24       1.0  0.7439212805782985  0.4961441384565644  0.05536757812452461  1.0000
  H   H25       1.0  0.26883615813144246  0.22866195434148293  0.8742198054698991  1.0000
  H   H26       1.0  0.7688403544545109  0.771337766047381  0.12578079792665872  1.0000
  H   H27       1.0  0.9653487909998404  0.30944933159422305  0.9006102102044198  1.0000
  H   H28       1.0  0.4653516411768166  0.6905503383475987  0.09938999442924512  1.0000
  H   H29       1.0  0.06744964422740199  0.0605194920254277  0.812099089050385  1.0000
  H   H30       1.0  0.5674522692839049  0.9394812422334196  0.18790192806601883  1.0000
  H   H31       1.0  0.4468048810027553  0.029328827806651196  0.6447070439539007  1.0000
  H   H32       1.0  0.9468073034104163  0.970667947414519  0.3552913857050727  1.0000
  H   H33       1.0  0.48211181538435  0.8001197890520046  0.7213536895266444  1.0000
  H   H34       1.0  0.9821102926992751  0.19987891875531008  0.2786470775618  1.0000
  H   H35       1.0  0.8113969209648458  0.17485730831130297  0.7073689113481125  1.0000
  H   H36       1.0  0.3113976736401938  0.8251433479428909  0.29262947877699474  1.0000
  H   H37       1.0  0.6161621023163946  0.396064067894251  0.758901878052619  1.0000
  H   H38       1.0  0.1161605163609494  0.6039356885093808  0.2410985944615263  1.0000
  C   C1        1.0  0.2702469106182406  0.5117947633115705  0.6365086522395629  1.0000
  C   C2        1.0  0.7702398146168363  0.4882107344753661  0.3634926344025189  1.0000
  C   C3        1.0  0.47351863943899275  0.5221611959943288  0.5810862506979788  1.0000
  C   C4        1.0  0.9735101326200847  0.47784041293584756  0.41891626809869825  1.0000
  C   C5        1.0  0.4871594469099136  0.63352197876042  0.5400665139635665  1.0000
  C   C6        1.0  0.9871617988196704  0.3664776819444737  0.4599331421441947  1.0000
  C   C7        1.0  0.30238643766524836  0.7351515999486009  0.5537053975263078  1.0000
  C   C8        1.0  0.8023805710635016  0.2648500329810375  0.4462947056767491  1.0000
  C   C9        1.0  0.1060264906025665  0.7236876543655623  0.6110342573717419  1.0000
  C   C10       1.0  0.6060199621140612  0.2763159494290476  0.38896571577404165  1.0000
  C   C11       1.0  0.0871321668074287  0.6126138439026787  0.6526228702723317  1.0000
  C   C12       1.0  0.5871311715719044  0.38738976844033596  0.347377653901539  1.0000
  C   C13       1.0  0.31211422287653784  0.8511847835332275  0.5057885582045429  1.0000
  C   C14       1.0  0.8121110999868648  0.14881588482850816  0.494211534202485  1.0000
  C   C15       1.0  0.4432860627571388  0.6094824211012051  0.820714806034694  1.0000
  C   C16       1.0  0.9432852168739743  0.3905172376770236  0.17928311079253942  1.0000
  C   C17       1.0  0.2974092814397977  0.47945559746320027  0.8244366974882598  1.0000
  C   C18       1.0  0.797406171914801  0.5205431416372619  0.17556220959446733  1.0000
  C   C19       1.0  0.3296954435586699  0.4301299824039119  0.9051445867374357  1.0000
  C   C20       1.0  0.8296954578641619  0.5698687531723292  0.09485491524685591  1.0000
  C   C21       1.0  0.18487636574704416  0.30199680747593044  0.9144910479544921  1.0000
  C   C22       1.0  0.6848781549707256  0.6980019704454747  0.08550946433008731  1.0000
  C   C23       1.0  0.2047246117456183  0.24667658405243725  0.99286106176762  1.0000
  C   C24       1.0  0.7047213442268472  0.7533202605496852  0.007138862034125303  1.0000
  C   C25       1.0  0.9041569812583817  0.020463635046944297  0.7771354337443699  1.0000
  C   C26       1.0  0.4041505935166896  0.979534116600426  0.22286354571013334  1.0000
  C   C27       1.0  0.5809239920342222  0.999528206718203  0.6895082743117485  1.0000
  C   C28       1.0  0.08092603649772909  0.0004725202701720998  0.3104921871324109  1.0000
  C   C29       1.0  0.6004276917039633  0.8875745696157576  0.727969770071468  1.0000
  C   C30       1.0  0.1004291542700386  0.11242519049908138  0.27203068895565263  1.0000
  S   S1        1.0  0.24905897956384135  0.3673514905817186  0.6861353106810243  1.0000
  S   S2        1.0  0.7490511327448529  0.6326501467433089  0.3138636123604003  1.0000
  N   N1        1.0  0.4085343826817862  0.38549007983693423  0.7675496910125759  1.0000
  N   N2        1.0  0.9085317906733364  0.614508637142407  0.2324498785553288  1.0000
  N   N3        1.0  0.8022098679109532  0.9019374316431267  0.7826687439190466  1.0000
  N   N4        1.0  0.3022127821545908  0.09806131041631258  0.21733073450445772  1.0000
  N   N5        1.0  0.7740464462145126  0.08183943766101717  0.7215555779395262  1.0000
  N   N6        1.0  0.2740448661249175  0.9181593110423871  0.27844387633894035  1.0000
  O   O1        1.0  0.6960554715996636  0.6088394662916767  0.8033470313441812  1.0000
  O   O2        1.0  0.1960516158122587  0.3911602712662796  0.19665350965762943  1.0000
  O   O3        1.0  0.3107920495963583  0.7112642820151079  0.8382530018536444  1.0000
  O   O4        1.0  0.8107911404413953  0.2887354243853436  0.1617470702845409  1.0000
  O   O5        1.0  0.3928818314009561  0.26845926296874  0.6421049891385309  1.0000
  O   O6        1.0  0.8928723007940603  0.7315433067953023  0.3578946435536495  1.0000
  O   O7        1.0  0.96107392016399  0.3464243498368731  0.703920152941791  1.0000
  O   O8        1.0  0.4610667395550152  0.6535743424732414  0.29607775999502917  1.0000
  O   O9        1.0  0.34343016277080807  0.3098873366740447  0.0433576004745149  1.0000
  O   O10       1.0  0.8434335906850948  0.6901152488456502  0.9566425570536341  1.0000
  O   O11       1.0  0.08562635103334058  0.1408476313566425  0.004100908085817401  1.0000
  O   O12       1.0  0.5856279485675415  0.8591511699767479  0.9958995191165486  1.0000
  O   O13       1.0  0.1633965654881138  0.9336837076757545  0.9125110783307806  1.0000
  O   O14       1.0  0.6633910131723226  0.06631699167498077  0.08748831936400593  1.0000
