data_image0
_chemical_formula_structural       Cd4H16C12Br8N8
_chemical_formula_sum              "Cd4 H16 C12 Br8 N8"
_cell_length_a       3.9866428970024557
_cell_length_b       11.304282300010751
_cell_length_c       15.756563305011804
_cell_angle_alpha    89.99985956798317
_cell_angle_beta     89.9999810602599
_cell_angle_gamma    90.0000974314434

_space_group_name_H-M_alt    "P 1"
_space_group_IT_number       1

loop_
  _space_group_symop_operation_xyz
  'x, y, z'

loop_
  _atom_site_type_symbol
  _atom_site_label
  _atom_site_symmetry_multiplicity
  _atom_site_fract_x
  _atom_site_fract_y
  _atom_site_fract_z
  _atom_site_occupancy
  Cd  Cd1       1.0  0.9258744259053912  0.10772663073095859  0.0888815295238388  1.0000
  Cd  Cd2       1.0  0.4258910944295594  0.8922808181980243  0.9111185511300803  1.0000
  Cd  Cd3       1.0  0.9258978360311046  0.607723325728749  0.4111176010730162  1.0000
  Cd  Cd4       1.0  0.4258827345485302  0.39227704624507714  0.5888805756175586  1.0000
  H   H1        1.0  0.8201841315454034  0.21544096475739855  0.4161920302978431  1.0000
  H   H2        1.0  0.3201904962892428  0.7845557887804375  0.5838093350123756  1.0000
  H   H3        1.0  0.8201850797581188  0.7154423143639406  0.0838100991531263  1.0000
  H   H4        1.0  0.3201744978194513  0.2845544391671169  0.9161919008143471  1.0000
  H   H5        1.0  0.17496838635989326  0.9373178599259407  0.2622473385211705  1.0000
  H   H6        1.0  0.6749713994629971  0.0626858607482603  0.7377496052582657  1.0000
  H   H7        1.0  0.17497502513080584  0.4373153495644076  0.23775132038564814  1.0000
  H   H8        1.0  0.6749747941822123  0.5626804095257257  0.762247527368558  1.0000
  H   H9        1.0  0.10318702228016721  0.0148538561946907  0.4284246218690626  1.0000
  H   H10       1.0  0.6031983959177226  0.985146271708729  0.5715723323271433  1.0000
  H   H11       1.0  0.10319048311044553  0.5148552475236274  0.071572887726056  1.0000
  H   H12       1.0  0.6031849015793327  0.48514311113172676  0.9284259704409196  1.0000
  H   H13       1.0  0.6924201157895383  0.2699196506875197  0.2609944429343898  1.0000
  H   H14       1.0  0.19241870752954782  0.7300770062118785  0.7390075755689481  1.0000
  H   H15       1.0  0.6924210101947139  0.7699169325839821  0.2390069744263741  1.0000
  H   H16       1.0  0.19242032149738011  0.23007795507534476  0.7609950440783422  1.0000
  C   C1        1.0  0.06246356493326741  0.017654791486343403  0.2864025356431199  1.0000
  C   C2        1.0  0.5624623374835168  0.9823479594715466  0.713595059116109  1.0000
  C   C3        1.0  0.06246446815169551  0.5176548138913333  0.213596244239632  1.0000
  C   C4        1.0  0.5624714677566871  0.4823408601019282  0.7864038891497529  1.0000
  C   C5        1.0  0.029746866869693602  0.05498650860895541  0.3689509628661725  1.0000
  C   C6        1.0  0.5297580769213256  0.9450135637435582  0.631048540609612  1.0000
  C   C7        1.0  0.029752815461712608  0.5549894663705289  0.1310477559937482  1.0000
  C   C8        1.0  0.5297446032009392  0.44501060598021536  0.8689511128264228  1.0000
  C   C9        1.0  0.8148939438859202  0.18990661932311778  0.2826711857559019  1.0000
  C   C10       1.0  0.3148903198105302  0.8100945533133487  0.7173295456625013  1.0000
  C   C11       1.0  0.8148923374328235  0.68990574438007  0.2173290854795482  1.0000
  C   C12       1.0  0.3148869095048924  0.31009188977136404  0.7826722805984971  1.0000
  Br  Br1       1.0  0.9278357788362683  0.07709524284733502  0.9119728453043408  1.0000
  Br  Br2       1.0  0.4278302664191074  0.9229077844541679  0.08802723507052689  1.0000
  Br  Br3       1.0  0.927839233959688  0.5770948088294504  0.5880273985279985  1.0000
  Br  Br4       1.0  0.42782931966712573  0.4229055646114617  0.4119726818490221  1.0000
  Br  Br5       1.0  0.4280348036142031  0.27649878540704265  0.07803260453626142  1.0000
  Br  Br6       1.0  0.9280626823500954  0.723509549780694  0.9219674758026386  1.0000
  Br  Br7       1.0  0.4280732602294678  0.7764919049314828  0.4219675702804579  1.0000
  Br  Br8       1.0  0.9280317508397931  0.22350316095249675  0.5780318754134157  1.0000
  N   N1        1.0  0.9278810928358895  0.10269466375559234  0.2333140446283792  1.0000
  N   N2        1.0  0.4278877958438301  0.8973092482074847  0.766684766425925  1.0000
  N   N3        1.0  0.9278819776502872  0.6026945051252568  0.2666857291970786  1.0000
  N   N4        1.0  0.42788189426406836  0.3973023298674932  0.7333156204884688  1.0000
  N   N5        1.0  0.8738683142945407  0.16339442461416107  0.36493216332222994  1.0000
  N   N6        1.0  0.37387233831114486  0.8366067926315923  0.6350679248832733  1.0000
  N   N7        1.0  0.8738642279836313  0.6633947148023652  0.13506878071835624  1.0000
  N   N8        1.0  0.37387140786162837  0.336602079336764  0.8649325768037315  1.0000
