data_image0
_chemical_formula_structural       Ag2H16C24S4I4N2O8
_chemical_formula_sum              "Ag2 H16 C24 S4 I4 N2 O8"
_cell_length_a       8.993614821716067
_cell_length_b       9.131845129072625
_cell_length_c       10.828839717783337
_cell_angle_alpha    92.3822598798078
_cell_angle_beta     111.56438823137344
_cell_angle_gamma    110.88603364938977

_space_group_name_H-M_alt    "P 1"
_space_group_IT_number       1

loop_
  _space_group_symop_operation_xyz
  'x, y, z'

loop_
  _atom_site_type_symbol
  _atom_site_label
  _atom_site_symmetry_multiplicity
  _atom_site_fract_x
  _atom_site_fract_y
  _atom_site_fract_z
  _atom_site_occupancy
  Ag  Ag1       1.0  0.8305991440332292  0.5515578997771655  0.6028409776848278  1.0000
  Ag  Ag2       1.0  0.1694012860544944  0.44844029586538886  0.3971575471376525  1.0000
  H   H1        1.0  0.4233866119811581  0.38037991111893643  0.9572362886619882  1.0000
  H   H2        1.0  0.5766172681621953  0.6196206675685404  0.04276428060747142  1.0000
  H   H3        1.0  0.22992585486856137  0.13748913658305642  0.9976955326718481  1.0000
  H   H4        1.0  0.7700768312233919  0.8625114454653942  0.002304681607526479  1.0000
  H   H5        1.0  0.04960386221903685  0.9022202176427215  0.583610354682932  1.0000
  H   H6        1.0  0.9503970932218807  0.09777917391079433  0.41638837398695466  1.0000
  H   H7        1.0  0.24187540479624664  0.15069562580755763  0.5424430044567998  1.0000
  H   H8        1.0  0.758126755942513  0.8493037603299317  0.4575570059751684  1.0000
  H   H9        1.0  0.45730781688151734  0.9488073433072235  0.9014689312413181  1.0000
  H   H10       1.0  0.5426874774853587  0.05118727057525521  0.09852977061265737  1.0000
  H   H11       1.0  0.694145581541804  0.21582123686896187  0.939776287009991  1.0000
  H   H12       1.0  0.3058478950612765  0.784174571426185  0.06022561579916189  1.0000
  H   H13       1.0  0.7450714398385827  0.05600542544367222  0.5815603163340485  1.0000
  H   H14       1.0  0.2549286164463779  0.9439999454722783  0.4184430004625383  1.0000
  H   H15       1.0  0.510711747095698  0.7889715717284036  0.5460901545202717  1.0000
  H   H16       1.0  0.48928892165520205  0.2110326101909052  0.4539086795590563  1.0000
  C   C1        1.0  0.3396225905218699  0.28118939249348784  0.7457713052818702  1.0000
  C   C2        1.0  0.6603788902722485  0.7188111949709965  0.25422762723542286  1.0000
  C   C3        1.0  0.3404324331161632  0.27760895653899115  0.8744608828058557  1.0000
  C   C4        1.0  0.6595683789797492  0.7223928301974212  0.12553789856875144  1.0000
  C   C5        1.0  0.23111582316944632  0.1390996503737867  0.8976560877808523  1.0000
  C   C6        1.0  0.7688861829778589  0.860902133001659  0.10234304858384749  1.0000
  C   C7        1.0  0.12355836870746369  0.007089918268945902  0.7914258149277841  1.0000
  C   C8        1.0  0.8764405806388567  0.9929130711003752  0.20857246031405205  1.0000
  C   C9        1.0  0.1273888160451833  0.008410650350420202  0.6636347977621497  1.0000
  C   C10       1.0  0.8726126759953843  0.9915899350590041  0.33636506152713247  1.0000
  C   C11       1.0  0.23598221770517105  0.14678259067811442  0.6409957061571132  1.0000
  C   C12       1.0  0.7640186056371903  0.8532191940032379  0.35900400198948995  1.0000
  C   C13       1.0  0.4725910712201653  0.854088049519277  0.7234768356887855  1.0000
  C   C14       1.0  0.5274081760626146  0.14591014742919137  0.2765222609155913  1.0000
  C   C15       1.0  0.5225765962523211  0.9735538072955522  0.8330914294277247  1.0000
  C   C16       1.0  0.4774204287655833  0.02644199708185371  0.1669087580357314  1.0000
  C   C17       1.0  0.6548364109653377  0.12294616943025725  0.8538989503712882  1.0000
  C   C18       1.0  0.3451599790937223  0.8770508280539036  0.14610386626544877  1.0000
  C   C19       1.0  0.7352233312306923  0.14990101475544293  0.7633986938394485  1.0000
  C   C20       1.0  0.2647765201304395  0.8500983637185869  0.23660709401625718  1.0000
  C   C21       1.0  0.682449574325517  0.03179857757197622  0.6519036745569551  1.0000
  C   C22       1.0  0.31755077989590313  0.968202000923128  0.34810046360217933  1.0000
  C   C23       1.0  0.5502374871415441  0.8824853410430152  0.6315540115684114  1.0000
  C   C24       1.0  0.4497621421494243  0.11751644699931064  0.36844534158809944  1.0000
  S   S1        1.0  0.46761532583844473  0.4567080818817575  0.7081321090474545  1.0000
  S   S2        1.0  0.5323866915553096  0.5432936994386283  0.29186795408923416  1.0000
  S   S3        1.0  0.296280653899032  0.6683096718408806  0.6965843323015548  1.0000
  S   S4        1.0  0.7037185821372987  0.33168852716264763  0.30341383753083306  1.0000
  I   I1        1.0  0.9451028633708134  0.8040506642811283  0.8221012511808183  1.0000
  I   I2        1.0  0.054897948725098906  0.19595112245528418  0.1778975301937891  1.0000
  I   I3        1.0  0.9486180541272946  0.36680808494828915  0.7991148209199395  1.0000
  I   I4        1.0  0.051376265217307135  0.6331948911491597  0.200894082397383  1.0000
  N   N1        1.0  0.33055808610569676  0.5323200144871053  0.6238622816804805  1.0000
  N   N2        1.0  0.6694411611770905  0.46767818246136283  0.3761368149239033  1.0000
  O   O1        1.0  0.5227148629453566  0.40101765370778963  0.611545272411071  1.0000
  O   O2        1.0  0.47728766855514226  0.5989853255786102  0.3884540678010352  1.0000
  O   O3        1.0  0.6019736520779376  0.5632026958783245  0.8344056262124369  1.0000
  O   O4        1.0  0.39802664591123  0.43679789289207355  0.165593878086753  1.0000
  O   O5        1.0  0.14158223177206256  0.6771156343971757  0.5931917622618883  1.0000
  O   O6        1.0  0.8584157989664335  0.3228825700223867  0.4068051258084325  1.0000
  O   O7        1.0  0.2929404127774902  0.6452706609995076  0.8279565325425722  1.0000
  O   O8        1.0  0.7070581545606417  0.3547287372759556  0.17204148614713693  1.0000
