data_image0
_chemical_formula_structural       Zn2H44C42N2O12
_chemical_formula_sum              "Zn2 H44 C42 N2 O12"
_cell_length_a       10.927952614898794
_cell_length_b       14.691947267540455
_cell_length_c       16.219186950840722
_cell_angle_alpha    91.87901300915274
_cell_angle_beta     91.6714561982807
_cell_angle_gamma    71.28420289500605

_space_group_name_H-M_alt    "P 1"
_space_group_IT_number       1

loop_
  _space_group_symop_operation_xyz
  'x, y, z'

loop_
  _atom_site_type_symbol
  _atom_site_label
  _atom_site_symmetry_multiplicity
  _atom_site_fract_x
  _atom_site_fract_y
  _atom_site_fract_z
  _atom_site_occupancy
  Zn  Zn1       1.0  0.5310821931918143  0.39798546334593243  0.5027871251740235  1.0000
  Zn  Zn2       1.0  0.47762612732427095  0.5974035008417289  0.5052546639147124  1.0000
  H   H1        1.0  0.5913178773868139  0.35308311054154734  0.9204161589104913  1.0000
  H   H2        1.0  0.3723436533943456  0.6472002524631008  0.0864798640237012  1.0000
  H   H3        1.0  0.5035903816103726  0.08381422745432589  0.3753921662331975  1.0000
  H   H4        1.0  0.5137976874751828  0.9091555951817937  0.6341142510050444  1.0000
  H   H5        1.0  0.8419935691389141  0.6692876214752984  0.634061255294128  1.0000
  H   H6        1.0  0.9718218756718997  0.6045032015269739  0.7008632152408578  1.0000
  H   H7        1.0  0.6827320407357008  0.63908416216406  0.7268094968673962  1.0000
  H   H8        1.0  0.8084108358296261  0.5702353310748903  0.7915728997956535  1.0000
  H   H9        1.0  0.878392211177179  0.7155608078683  0.8253960610201005  1.0000
  H   H10       1.0  0.7140916794872467  0.7385266296027381  0.8507857236981522  1.0000
  H   H11       1.0  0.7534086208330207  0.786310582676009  0.759909555202384  1.0000
  H   H12       1.0  0.16705304868324342  0.3252303993846794  0.6261872761243197  1.0000
  H   H13       1.0  0.05554864474532911  0.3935064480580975  0.7012474401681602  1.0000
  H   H14       1.0  0.3515747674608889  0.34219440016187963  0.7106223085760063  1.0000
  H   H15       1.0  0.24606400826481695  0.4185218955294586  0.7820167536415781  1.0000
  H   H16       1.0  0.16392604685300682  0.2861773371242505  0.8233292949498221  1.0000
  H   H17       1.0  0.33515099643347673  0.247405914000204  0.833146397709548  1.0000
  H   H18       1.0  0.2586020707830201  0.20733809819189014  0.7477490496202108  1.0000
  H   H19       1.0  0.9352047845249489  0.4317587614025269  0.377300060644842  1.0000
  H   H20       1.0  0.07159635358794965  0.38408029546063455  0.4442249046401798  1.0000
  H   H21       1.0  0.9509872732986863  0.3254759680601607  0.4307094637002179  1.0000
  H   H22       1.0  0.050106655078366175  0.6714308600012728  0.44009960444951446  1.0000
  H   H23       1.0  0.060569462318291335  0.5663196433672155  0.3805858387859472  1.0000
  H   H24       1.0  0.931102253590545  0.6122087724443972  0.4505407135255196  1.0000
  H   H25       1.0  0.47755301356827556  0.24444991743106928  0.0748346196320071  1.0000
  H   H26       1.0  0.4517321197902006  0.333703260971319  0.15624112545778246  1.0000
  H   H27       1.0  0.6947303624410565  0.15797836698571638  0.14119516535200194  1.0000
  H   H28       1.0  0.6589795672511228  0.24468184744380747  0.2230634633116964  1.0000
  H   H29       1.0  0.46831259360551064  0.19584745492383596  0.26107746353292066  1.0000
  H   H30       1.0  0.6116458733083191  0.09421971373554777  0.2604290563882188  1.0000
  H   H31       1.0  0.49772518864750737  0.11082730053551869  0.1773009933632963  1.0000
  H   H32       1.0  0.5143181998554526  0.6638821159953633  0.8522284781032994  1.0000
  H   H33       1.0  0.47713920296152434  0.761838933437026  0.9260594821506771  1.0000
  H   H34       1.0  0.30676876920227875  0.7384820827054025  0.7781399712350561  1.0000
  H   H35       1.0  0.2642666578731153  0.8351025094820697  0.8513672558324075  1.0000
  H   H36       1.0  0.46188016002064086  0.87955801797375  0.8090380816725684  1.0000
  H   H37       1.0  0.3493629094065583  0.8857344250843864  0.7262409933141143  1.0000
  H   H38       1.0  0.493391823894939  0.7854871947835631  0.7325629343441662  1.0000
  H   H39       1.0  0.4156070059766676  0.864933980640245  0.3444558746246571  1.0000
  H   H40       1.0  0.4590582339118754  0.9563972403631026  0.2947013366417579  1.0000
  H   H41       1.0  0.5798113168194946  0.8505043653941442  0.3282501555621309  1.0000
  H   H42       1.0  0.6083207509821094  0.12487105974754797  0.6642461558365793  1.0000
  H   H43       1.0  0.4432180069602864  0.14336200499359814  0.6811111310604118  1.0000
  H   H44       1.0  0.5605517487412826  0.035791291344167996  0.714587083786057  1.0000
  C   C1        1.0  0.49567953935464715  0.49101307748244233  0.3417158717764436  1.0000
  C   C2        1.0  0.5027452870226483  0.5056459250809127  0.6660215518067716  1.0000
  C   C3        1.0  0.5058812498533314  0.0441438027179402  0.4313209589046991  1.0000
  C   C4        1.0  0.5121897661721422  0.9486733416720126  0.5781527657902643  1.0000
  C   C5        1.0  0.5194405221579502  0.08715363449675807  0.508220372646434  1.0000
  C   C6        1.0  0.4982083238358187  0.9057897410511088  0.5012034879093717  1.0000
  C   C7        1.0  0.5231433902864423  0.0405388459066884  0.5836835185150164  1.0000
  C   C8        1.0  0.4959414233006783  0.9520096640066311  0.4257111133395667  1.0000
  C   C9        1.0  0.5310217207350262  0.1806450388926137  0.5086948808150922  1.0000
  C   C10       1.0  0.4838938137811227  0.8131087496901229  0.5004304557982735  1.0000
  C   C11       1.0  0.2569462365782371  0.5329546335196936  0.5074144958078007  1.0000
  C   C12       1.0  0.7519524949122028  0.4625089999756753  0.5070615875851274  1.0000
  C   C13       1.0  0.11635413260159305  0.5429643056779412  0.5088889410363463  1.0000
  C   C14       1.0  0.8927182209628343  0.4523372544745498  0.5070697659774408  1.0000
  C   C15       1.0  0.07318172014676354  0.5009973161121691  0.5699115318220649  1.0000
  C   C16       1.0  0.9425843952470673  0.4930352455698068  0.5700391522605484  1.0000
  C   C17       1.0  0.5433557845034188  0.4176446156355951  0.9568544404607591  1.0000
  C   C18       1.0  0.41979494479931406  0.5824419097047338  0.05008054092389359  1.0000
  C   C19       1.0  0.4865694987021527  0.5052866483015279  0.9166808068014731  1.0000
  C   C20       1.0  0.4778552315178218  0.49499013748722825  0.0903479645894762  1.0000
  C   C21       1.0  0.42384487687042594  0.5889157238836731  0.9649113516190154  1.0000
  C   C22       1.0  0.5394086004713473  0.4111822860126608  0.04190186093290999  1.0000
  C   C23       1.0  0.490588137276113  0.5072228291049115  0.8298704571989999  1.0000
  C   C24       1.0  0.4807225845010805  0.4928204231806603  0.1774079846794336  1.0000
  C   C25       1.0  0.4867883852954621  0.49169579365728566  0.2525671855844251  1.0000
  C   C26       1.0  0.4960500186696565  0.5064089484411268  0.7549052008174257  1.0000
  C   C27       1.0  0.8725876139835833  0.6112752902923759  0.6793400914150991  1.0000
  C   C28       1.0  0.7803770373844332  0.632427631540068  0.750898387657642  1.0000
  C   C29       1.0  0.7816275019685577  0.7230473140093493  0.7994089597541388  1.0000
  C   C30       1.0  0.15104675808215973  0.38250848589017733  0.674406035602857  1.0000
  C   C31       1.0  0.2575636766585347  0.3560697381424233  0.7400347474387841  1.0000
  C   C32       1.0  0.25385394717376647  0.2696777248793438  0.7886910959730358  1.0000
  C   C33       1.0  0.9678149572690059  0.39543101105741824  0.4362152286874661  1.0000
  C   C34       1.0  0.033947168841947914  0.6012972886510113  0.441613870950583  1.0000
  C   C35       1.0  0.5260953625828221  0.27934861565550756  0.12067964846978897  1.0000
  C   C36       1.0  0.6154858922814769  0.20634360795250464  0.1776196198732407  1.0000
  C   C37       1.0  0.544051712683114  0.14859671998888044  0.2215477095855789  1.0000
  C   C38       1.0  0.43510457497846017  0.719632511590021  0.8827745642880486  1.0000
  C   C39       1.0  0.3462976161236996  0.7835366905776056  0.8193731086479872  1.0000
  C   C40       1.0  0.41695032792755876  0.8366513396127502  0.7690233987599838  1.0000
  C   C41       1.0  0.4862361366352844  0.9038439479211886  0.3439467668637946  1.0000
  C   C42       1.0  0.5351682064406448  0.08823517536409753  0.6652279796438307  1.0000
  N   N1        1.0  0.46943743657324427  0.7382282756162936  0.5007974704709284  1.0000
  N   N2        1.0  0.541991487981079  0.25660772915372826  0.5078244710766595  1.0000
  O   O1        1.0  0.5236759947122634  0.40911701695686276  0.3747531918245386  1.0000
  O   O2        1.0  0.4841429832554027  0.5867448613316313  0.6331855710614747  1.0000
  O   O3        1.0  0.47486609005081704  0.5725600928179515  0.37804875430917656  1.0000
  O   O4        1.0  0.5265976654979384  0.4237850756222841  0.6298493437301147  1.0000
  O   O5        1.0  0.3344798906674171  0.4473070792865456  0.5018587617183101  1.0000
  O   O6        1.0  0.6741580971075293  0.5481949885182118  0.5057350992385992  1.0000
  O   O7        1.0  0.28768454107343205  0.6095992376395286  0.5076313263705501  1.0000
  O   O8        1.0  0.7208565622507735  0.3859562936144342  0.5040654102583844  1.0000
  O   O9        1.0  0.869872653137534  0.522538627694878  0.6400128528321929  1.0000
  O   O10       1.0  0.15335459343742033  0.46998396019742467  0.6377089947212865  1.0000
  O   O11       1.0  0.6036146435806985  0.32452860946415996  0.07670620387413148  1.0000
  O   O12       1.0  0.35975379980394717  0.6756518511756652  0.9302684583062655  1.0000
