data_image0
_chemical_formula_structural       ZnMo4H24C36N12O13
_chemical_formula_sum              "Zn1 Mo4 H24 C36 N12 O13"
_cell_length_a       8.101926285039411
_cell_length_b       8.922160056969053
_cell_length_c       13.667640121385947
_cell_angle_alpha    80.05296239613959
_cell_angle_beta     84.44479020642962
_cell_angle_gamma    80.69085351682308

_space_group_name_H-M_alt    "P 1"
_space_group_IT_number       1

loop_
  _space_group_symop_operation_xyz
  'x, y, z'

loop_
  _atom_site_type_symbol
  _atom_site_label
  _atom_site_symmetry_multiplicity
  _atom_site_fract_x
  _atom_site_fract_y
  _atom_site_fract_z
  _atom_site_occupancy
  Zn  Zn1       1.0  0.49999886961383316  6.237429346000907e-07  0.4999997311834718  1.0000
  Mo  Mo1       1.0  0.15368263925155648  0.3182593884620673  0.4237079450079761  1.0000
  Mo  Mo2       1.0  0.8463169602551515  0.6817426384799177  0.5762929356518711  1.0000
  Mo  Mo3       1.0  0.30713829962339645  0.6208476343993113  0.5517936576110216  1.0000
  Mo  Mo4       1.0  0.6928614876775542  0.37915323858770494  0.44820661289815417  1.0000
  H   H1        1.0  0.3426085962126279  0.2599338817731152  0.6005865779426927  1.0000
  H   H2        1.0  0.6573878503552778  0.7400646747467334  0.39941342269978003  1.0000
  H   H3        1.0  0.19310178748023082  0.3068894108717188  0.7622580966647732  1.0000
  H   H4        1.0  0.8068969501857738  0.6931103075712246  0.23774236793987305  1.0000
  H   H5        1.0  0.4064569005958704  0.847751633149244  0.8890251177920021  1.0000
  H   H6        1.0  0.5935430744993225  0.15224808588280328  0.11097454256650247  1.0000
  H   H7        1.0  0.5302668371578605  0.8111887728017211  0.7163985345878315  1.0000
  H   H8        1.0  0.4697318964741938  0.18881093885131156  0.28360046771302894  1.0000
  H   H9        1.0  0.005086797204505405  0.084537330040348  0.28399913281980094  1.0000
  H   H10       1.0  0.9949140377144231  0.915464694095789  0.7160002124420117  1.0000
  H   H11       1.0  0.06952410126400824  0.9126454761440571  0.444172426082055  1.0000
  H   H12       1.0  0.9304767296209633  0.08735654120217619  0.5558254568759863  1.0000
  H   H13       1.0  0.40274938129658017  0.6042471607821299  0.3008974054954264  1.0000
  H   H14       1.0  0.5972514536223487  0.3957548633540143  0.6991019397663933  1.0000
  H   H15       1.0  0.3592712256972419  0.7697742025513675  0.1334699974894207  1.0000
  H   H16       1.0  0.640728747380976  0.23022551308572767  0.8665289317171911  1.0000
  H   H17       1.0  0.7939597055760218  0.3488349752849444  0.17527095240554758  1.0000
  H   H18       1.0  0.20604170281050935  0.6511636039610665  0.8247302181636939  1.0000
  H   H19       1.0  0.5718821308905718  0.5746616566843555  0.16770264312138744  1.0000
  H   H20       1.0  0.42812194619951066  0.42533577996975686  0.8322985022605704  1.0000
  H   H21       1.0  0.653124892227737  0.681818292101312  0.8608233037794191  1.0000
  H   H22       1.0  0.34687614057030913  0.3181825950546298  0.13917908709116486  1.0000
  H   H23       1.0  0.8751815712813169  0.4580931305807142  0.8553774577875471  1.0000
  H   H24       1.0  0.12481716840166258  0.5419065912571882  0.14462373796897768  1.0000
  C   C1        1.0  0.3495684759263895  0.16952826283489494  0.6649703520603367  1.0000
  C   C2        1.0  0.6504292080707116  0.8304702942740648  0.3350288443359942  1.0000
  C   C3        1.0  0.26789231311802547  0.1960173809454346  0.7556190314333691  1.0000
  C   C4        1.0  0.7321062327197793  0.8039834846625666  0.24438058101817006  1.0000
  C   C5        1.0  0.2851416544077308  0.0789473580761566  0.8379722751650573  1.0000
  C   C6        1.0  0.7148581328932194  0.9210535149108596  0.1620279953441184  1.0000
  C   C7        1.0  0.3866090904958527  0.9396726351560717  0.8255635644238595  1.0000
  C   C8        1.0  0.613390696805105  0.06032823783094441  0.17443670608531645  1.0000
  C   C9        1.0  0.45719243546795957  0.9200400090115224  0.7305720216875642  1.0000
  C   C10       1.0  0.5428075396272334  0.0799597100205247  0.2694276386709404  1.0000
  C   C11       1.0  0.19333970701970324  0.1056840692842655  0.9339965997030218  1.0000
  C   C12       1.0  0.8066592184405436  0.8943144952037088  0.0660032547509459  1.0000
  C   C13       1.0  0.1431425450201615  0.04188031433853471  0.10063429373985137  1.0000
  C   C14       1.0  0.8568551409939148  0.958118246165377  0.8993656338083723  1.0000
  C   C15       1.0  0.9880460868663692  0.25142387014722095  0.016459036688360067  1.0000
  C   C16       1.0  0.011953698417606492  0.7485769994448432  0.9835405026689229  1.0000
  C   C17       1.0  0.1775684866812028  0.9396038188964725  0.1962485339242193  1.0000
  C   C18       1.0  0.8224290075046738  0.060395888772504194  0.8037505414708973  1.0000
  C   C19       1.0  0.09412913966717447  0.97904551890295  0.2849138996452467  1.0000
  C   C20       1.0  0.905870645616801  0.020955350689114  0.7150856397120434  1.0000
  C   C21       1.0  0.12886941639549576  0.8829407836513569  0.3738553600308023  1.0000
  C   C22       1.0  0.8711293172365515  0.1170589280016756  0.6261436422700654  1.0000
  C   C23       1.0  0.3163078387429081  0.7119354601993423  0.29389094711370933  1.0000
  C   C24       1.0  0.6836919465410675  0.288065409392722  0.7061085922435808  1.0000
  C   C25       1.0  0.29166779826680767  0.803137723811929  0.20121981150577278  1.0000
  C   C26       1.0  0.7083309353652397  0.19686198784111042  0.798779190795095  1.0000
  C   C27       1.0  0.7645052880329359  0.41845530895058414  0.10390937082005539  1.0000
  C   C28       1.0  0.23549716998854825  0.5815444248394995  0.8960916056537157  1.0000
  C   C29       1.0  0.6401737904446209  0.5464345520326718  0.09907096265055056  1.0000
  C   C30       1.0  0.35982885940504866  0.45356403459234684  0.9009308659763278  1.0000
  C   C31       1.0  0.6846468146245003  0.6053828539057023  0.9298816496303743  1.0000
  C   C32       1.0  0.315354216156571  0.3946180298552876  0.07012001008832405  1.0000
  C   C33       1.0  0.8101572118930207  0.4793422669956301  0.9261715605413555  1.0000
  C   C34       1.0  0.18984276925310434  0.5206574622212871  0.07383029327281321  1.0000
  C   C35       1.0  0.8521027109348651  0.3835207839184847  0.015399511375697691  1.0000
  C   C36       1.0  0.14789764579974476  0.6164766373884872  0.9846011221371286  1.0000
  N   N1        1.0  0.4380942992823478  0.032798922491480205  0.6510214091083739  1.0000
  N   N2        1.0  0.5619056758128451  0.967200796540567  0.34897825125012355  1.0000
  N   N3        1.0  0.233438366988203  0.007573707520194301  0.0173443245800513  1.0000
  N   N4        1.0  0.7665605584720439  0.99242485696778  0.9826555298739164  1.0000
  N   N5        1.0  0.07115682707303252  0.227458259900402  0.9294433889386226  1.0000
  N   N6        1.0  0.9288443874683309  0.7725414631157079  0.07055619832562597  1.0000
  N   N7        1.0  0.020922762159209213  0.16235037009681721  0.10424321956263329  1.0000
  N   N8        1.0  0.979074923854867  0.8376481904070944  0.8957567079855906  1.0000
  N   N9        1.0  0.23711321670213437  0.7506200778426834  0.3792834758541658  1.0000
  N   N10       1.0  0.7628878060110368  0.24938079233848506  0.6207152592569827  1.0000
  N   N11       1.0  0.5996749250459174  0.6406138327466097  0.01428566190667621  1.0000
  N   N12       1.0  0.4003264853575884  0.35938474989435326  0.9857162398144579  1.0000
  O   O1        1.0  0.2678594764594847  0.1365491208937186  0.4629567188858203  1.0000
  O   O2        1.0  0.7321401190132734  0.8634528992583554  0.5370426994702483  1.0000
  O   O3        1.0  0.9323051322674798  0.2906564435545605  0.4284019490805804  1.0000
  O   O4        1.0  0.06769589447964112  0.7093444334165185  0.5715982483343396  1.0000
  O   O5        1.0  0.22355278297161618  0.38287760969606677  0.30320693491746903  1.0000
  O   O6        1.0  0.7764470043293344  0.6171232632909565  0.6967933355917069  1.0000
  O   O7        1.0  0.1883629366557642  0.44927636733898896  0.5031156161691541  1.0000
  O   O8        1.0  0.8116403791724808  0.5507256681602256  0.49688431405604666  1.0000
  O   O9        1.0  0.5000006072706783  0.49999986150805853  0.4999997936321279  1.0000
  O   O10       1.0  0.3198060429875795  0.5401155094719741  0.6744494216377817  1.0000
  O   O11       1.0  0.6801939341245883  0.459884212955032  0.3255509698726086  1.0000
  O   O12       1.0  0.3913807846184199  0.791184646300124  0.5427947390954913  1.0000
  O   O13       1.0  0.6086202421287012  0.20881623067095495  0.45720545831942866  1.0000
