data_image0
_chemical_formula_structural       Gd4H76C96Cl24O44
_chemical_formula_sum              "Gd4 H76 C96 Cl24 O44"
_cell_length_a       8.838238017519842
_cell_length_b       13.658919685766987
_cell_length_c       31.64003873927319
_cell_angle_alpha    90.00040835836772
_cell_angle_beta     90.000210999523
_cell_angle_gamma    93.87675415634631

_space_group_name_H-M_alt    "P 1"
_space_group_IT_number       1

loop_
  _space_group_symop_operation_xyz
  'x, y, z'

loop_
  _atom_site_type_symbol
  _atom_site_label
  _atom_site_symmetry_multiplicity
  _atom_site_fract_x
  _atom_site_fract_y
  _atom_site_fract_z
  _atom_site_occupancy
  Gd  Gd1       1.0  0.7668464125984402  0.008482461526284601  0.0023066494880055  1.0000
  Gd  Gd2       1.0  0.2668461599499565  0.5084831329919411  0.49769341692608277  1.0000
  Gd  Gd3       1.0  0.2331541537145441  0.9915129856879332  0.9976932163082068  1.0000
  Gd  Gd4       1.0  0.7331515081174232  0.4915174397961979  0.5023077130975437  1.0000
  H   H1        1.0  0.7045815052626169  0.8207957480630839  0.0354314075375441  1.0000
  H   H2        1.0  0.2045806306707831  0.32079019772069034  0.4645714558548447  1.0000
  H   H3        1.0  0.2954169394835163  0.17920115942461481  0.9645697224808172  1.0000
  H   H4        1.0  0.7954188748831329  0.6792059796573755  0.5354322026048308  1.0000
  H   H5        1.0  0.5465048120888057  0.8315840500137814  0.0141298545681749  1.0000
  H   H6        1.0  0.046501367564403  0.33158399066423533  0.485871936699219  1.0000
  H   H7        1.0  0.45349589628138887  0.16841286478769749  0.9858703272856103  1.0000
  H   H8        1.0  0.9534951686921715  0.6684165784683671  0.5141298254343097  1.0000
  H   H9        1.0  0.8471752057319577  0.9486853660788129  0.0943920963890363  1.0000
  H   H10       1.0  0.3471683268511825  0.4486729192339923  0.4056084584805077  1.0000
  H   H11       1.0  0.15282543161328732  0.05131081493309611  0.9056084015188188  1.0000
  H   H12       1.0  0.652825799089449  0.5513144379684717  0.5943923554657501  1.0000
  H   H13       1.0  0.9574847963514018  0.8914337881425142  0.0650368524343605  1.0000
  H   H14       1.0  0.4574802120431445  0.3914291865039701  0.43496584808936223  1.0000
  H   H15       1.0  0.042512445534612205  0.1085623818729715  0.9349620651955917  1.0000
  H   H16       1.0  0.5425169588495891  0.6085662497571889  0.5650374943127686  1.0000
  H   H17       1.0  0.17562062803438752  0.16295094543644242  0.0874935941569461  1.0000
  H   H18       1.0  0.675611393622269  0.6629504426617601  0.4125071736648209  1.0000
  H   H19       1.0  0.8243732894417094  0.8370459473992898  0.9125065876934284  1.0000
  H   H20       1.0  0.3243775750736333  0.3370537698190931  0.5874961687467604  1.0000
  H   H21       1.0  0.1474110353154998  0.2608743594333164  0.0526739253730355  1.0000
  H   H22       1.0  0.6473956887632752  0.7608758996343071  0.4473277483135973  1.0000
  H   H23       1.0  0.8525920077183146  0.7391232964877903  0.9473268885935227  1.0000
  H   H24       1.0  0.35258769187429817  0.23912902832589825  0.552674645930594  1.0000
  H   H25       1.0  0.6883586504516899  0.26069254667110914  0.2141648307588966  1.0000
  H   H26       1.0  0.1883484834855054  0.7606910292133835  0.2858343546482871  1.0000
  H   H27       1.0  0.31164050455368664  0.7393116987231283  0.7858344029396916  1.0000
  H   H28       1.0  0.811657954956381  0.23930663764722482  0.7141614024361544  1.0000
  H   H29       1.0  0.8861991566429027  0.9883623943346082  0.1853184246513635  1.0000
  H   H30       1.0  0.38619441837229834  0.4883616031597101  0.31467913078545  1.0000
  H   H31       1.0  0.11379073075973173  0.011639620400536902  0.8146814411496591  1.0000
  H   H32       1.0  0.6138042394681734  0.5116375057183831  0.6853235795126054  1.0000
  H   H33       1.0  0.0342526285238947  0.06980986067600983  0.1274737359224005  1.0000
  H   H34       1.0  0.5342531772719211  0.569810906313677  0.3725231276288241  1.0000
  H   H35       1.0  0.9657356298616124  0.930187013841376  0.8725248656489342  1.0000
  H   H36       1.0  0.4657448459348288  0.43019333543858107  0.6274783184558714  1.0000
  H   H37       1.0  0.6317464633739149  0.2589183773404501  0.9055713490382897  1.0000
  H   H38       1.0  0.13175379447505262  0.7589261128845026  0.594424653921486  1.0000
  H   H39       1.0  0.3682501392583221  0.7410711885363811  0.0944266204154545  1.0000
  H   H40       1.0  0.8682435184700168  0.24107079095850287  0.4055783724277403  1.0000
  H   H41       1.0  0.738264552045237  0.33438223618580315  0.942075266275097  1.0000
  H   H42       1.0  0.23828737902025673  0.834391598144194  0.5579239197186752  1.0000
  H   H43       1.0  0.2617229250512024  0.6656065666300536  0.05792491555960309  1.0000
  H   H44       1.0  0.7617089441614624  0.16560676961970705  0.442078790577078  1.0000
  H   H45       1.0  0.0708325442223767  0.2260357614488413  0.7672753606914284  1.0000
  H   H46       1.0  0.5708380795733349  0.7260263626567748  0.7327245890286918  1.0000
  H   H47       1.0  0.929169797772829  0.7739780305696726  0.2327241890787022  1.0000
  H   H48       1.0  0.4291691355716694  0.27396763893050047  0.2672743286028805  1.0000
  H   H49       1.0  0.7185085947626035  0.016857765610161796  0.8121953433421822  1.0000
  H   H50       1.0  0.2184933839254839  0.5168648248368868  0.6878037925017609  1.0000
  H   H51       1.0  0.28151043571874373  0.9831414091191066  0.1878019940270477  1.0000
  H   H52       1.0  0.7815083852476264  0.48313135984953715  0.3121982856828537  1.0000
  H   H53       1.0  0.6986840436851766  0.11299505655621543  0.8773350984682793  1.0000
  H   H54       1.0  0.19867271121717778  0.6130046818822733  0.6226639979150193  1.0000
  H   H55       1.0  0.3013308100551839  0.886996035483222  0.1226631870521331  1.0000
  H   H56       1.0  0.8013224091239125  0.3869929484310931  0.3773390284342426  1.0000
  H   H57       1.0  0.5690090187477779  0.9948571750732216  0.13198553565237597  1.0000
  H   H58       1.0  0.068995408758056  0.49485066544122  0.3680129885443151  1.0000
  H   H59       1.0  0.43098751747956504  0.005143394026852401  0.8680124338182864  1.0000
  H   H60       1.0  0.931012166182903  0.5051587421636442  0.6319906699397606  1.0000
  H   H61       1.0  0.6455991129707287  0.10942407909569601  0.1123495935826213  1.0000
  H   H62       1.0  0.1455932004861964  0.6094169813694849  0.3876471867339362  1.0000
  H   H63       1.0  0.3544044272353021  0.8905787133496831  0.8876486919501898  1.0000
  H   H64       1.0  0.8544028432157803  0.39059018824895736  0.6123564717409593  1.0000
  H   H65       1.0  0.21935154987613711  0.37635384504760344  0.1905168906915478  1.0000
  H   H66       1.0  0.7193391695006213  0.8763471684012601  0.3094792054038891  1.0000
  H   H67       1.0  0.7806636636309534  0.6236526529768937  0.8094823430185016  1.0000
  H   H68       1.0  0.2806573667462047  0.12365340072049953  0.6905212925086843  1.0000
  H   H69       1.0  0.48392023510821514  0.402922205134182  0.0761101236300448  1.0000
  H   H70       1.0  0.9839098312286723  0.9029196925792179  0.4238869495999396  1.0000
  H   H71       1.0  0.5160761590570503  0.5970768963732028  0.923886897672574  1.0000
  H   H72       1.0  0.016093074353385393  0.09708823275116168  0.5761113359404746  1.0000
  H   H73       1.0  0.5465753005697422  0.23060275258717414  0.0826016638391138  1.0000
  H   H74       1.0  0.046560015399769776  0.7305998012142184  0.4173950754242454  1.0000
  H   H75       1.0  0.45341854584729907  0.7693934064210383  0.9173944092919867  1.0000
  H   H76       1.0  0.9534392816774329  0.26940591178355794  0.5826063706633491  1.0000
  C   C1        1.0  0.9788565962190392  0.1412494891475831  0.0482462205911247  1.0000
  C   C2        1.0  0.4788437491035111  0.6412434655459337  0.4517535177003182  1.0000
  C   C3        1.0  0.021148852471682685  0.8587496416474708  0.9517508007160416  1.0000
  C   C4        1.0  0.5211484019451049  0.3587585565273983  0.5482482444332674  1.0000
  C   C5        1.0  0.08827086287360687  0.2073495826040102  0.07389660671085349  1.0000
  C   C6        1.0  0.5882561789505942  0.7073492947773373  0.4261029468541365  1.0000
  C   C7        1.0  0.9117266631292651  0.7926495225887252  0.9261032590894798  1.0000
  C   C8        1.0  0.41173059711940857  0.29265564414947687  0.5738975510603197  1.0000
  C   C9        1.0  0.9406327382548982  0.210972761315503  0.13637862843124537  1.0000
  C   C10       1.0  0.440619669132424  0.7109769664139804  0.3636187583125405  1.0000
  C   C11       1.0  0.059364574646323796  0.7890241424787021  0.8636187089236813  1.0000
  C   C12       1.0  0.5593773642866255  0.28902873923205874  0.6363792111662931  1.0000
  C   C13       1.0  0.8446421535330587  0.2639851512048565  0.16201421886798065  1.0000
  C   C14       1.0  0.3446284051679315  0.7639859813432254  0.33798323579150485  1.0000
  C   C15       1.0  0.15535763609143058  0.7360139612989514  0.8379843827125412  1.0000
  C   C16       1.0  0.6553715264845438  0.23601459871532177  0.6620118891837166  1.0000
  C   C17       1.0  0.7625955794406565  0.21839688505123434  0.19499700042679538  1.0000
  C   C18       1.0  0.26258811360068535  0.7183971713306507  0.3050018124027786  1.0000
  C   C19       1.0  0.23740223067419217  0.7816051553133363  0.8050031814334487  1.0000
  C   C20       1.0  0.7374207305249101  0.28160197043372653  0.6949936286299019  1.0000
  C   C21       1.0  0.776087483899815  0.11866728442406332  0.20274305129568396  1.0000
  C   C22       1.0  0.276086476480792  0.6186652584078516  0.29725609968520667  1.0000
  C   C23       1.0  0.2239082046384411  0.8813362162031454  0.7972571305657467  1.0000
  C   C24       1.0  0.7239153637099563  0.3813316600600132  0.7027447142796247  1.0000
  C   C25       1.0  0.8727003526213509  0.06526886271229422  0.1782680154104668  1.0000
  C   C26       1.0  0.37269880370885033  0.5652694542876233  0.3217304349715846  1.0000
  C   C27       1.0  0.127291798422398  0.9347331593556165  0.8217331146126483  1.0000
  C   C28       1.0  0.6273047365191077  0.4347333381821557  0.6782706950583801  1.0000
  C   C29       1.0  0.9548822223733427  0.11150676957944942  0.145313679891558  1.0000
  C   C30       1.0  0.45488019165235727  0.611509390439501  0.3546862589595534  1.0000
  C   C31       1.0  0.045107309885054285  0.8884915761861621  0.8546852377379182  1.0000
  C   C32       1.0  0.545119034399896  0.38849558876870555  0.6453155031821112  1.0000
  C   C33       1.0  0.753832910598412  0.18090757443857086  0.9518357714447987  1.0000
  C   C34       1.0  0.2538454007805555  0.680916735992561  0.5481623248913507  1.0000
  C   C35       1.0  0.24616065172126866  0.8190856494140705  0.0481618819578316  1.0000
  C   C36       1.0  0.7461510644510626  0.31908309935047197  0.4518397532962553  1.0000
  C   C37       1.0  0.7407359814154973  0.26787501426924365  0.922597944865231  1.0000
  C   C38       1.0  0.2407488512288438  0.7678839436229057  0.5774004064880317  1.0000
  C   C39       1.0  0.2592595604381813  0.7321152817497493  0.0774012888100657  1.0000
  C   C40       1.0  0.7592487458306395  0.2321158953946494  0.4226032519763407  1.0000
  C   C41       1.0  0.8695321377754511  0.22639071797789975  0.8594077568649323  1.0000
  C   C42       1.0  0.369532821337664  0.7263933532142276  0.6405924910407848  1.0000
  C   C43       1.0  0.13046963138791057  0.7736054666976812  0.1405930570987266  1.0000
  C   C44       1.0  0.6304711404296698  0.27360210499099213  0.359408322922846  1.0000
  C   C45       1.0  0.9762950105610528  0.25601813316449556  0.8280542277566737  1.0000
  C   C46       1.0  0.4762975887042273  0.7560125081136206  0.6719474818554545  1.0000
  C   C47       1.0  0.023709732517275487  0.743985396766661  0.17194785044074476  1.0000
  C   C48       1.0  0.5237061599785238  0.24398074871205472  0.3280530160494379  1.0000
  C   C49       1.0  0.9886406086787146  0.20118874065094167  0.7912378227961766  1.0000
  C   C50       1.0  0.4886402878102487  0.701183002422262  0.7087630979922463  1.0000
  C   C51       1.0  0.011369300894202192  0.7988214080383004  0.20876235908257  1.0000
  C   C52       1.0  0.5113647347478221  0.29881172565435327  0.2912380320260297  1.0000
  C   C53       1.0  0.8946848139008097  0.11579519679443713  0.7854977652854271  1.0000
  C   C54       1.0  0.3946803383384889  0.6157924775480269  0.7145012185923889  1.0000
  C   C55       1.0  0.1053347137819856  0.8842091144916397  0.2145008363129151  1.0000
  C   C56       1.0  0.6053309779122317  0.38419713593752663  0.2854986472001785  1.0000
  C   C57       1.0  0.7893646910506007  0.08448598298330984  0.8162599531675667  1.0000
  C   C58       1.0  0.2893525999380486  0.5844907820961538  0.6837404097484239  1.0000
  C   C59       1.0  0.21065193376166041  0.9155117168584542  0.1837395965848643  1.0000
  C   C60       1.0  0.7106513618292922  0.41550467610906583  0.3162604042152068  1.0000
  C   C61       1.0  0.777937822218412  0.13998148739524652  0.8530359045408673  1.0000
  C   C62       1.0  0.2779249511771482  0.6399834542197951  0.6469643019934991  1.0000
  C   C63       1.0  0.22208431961018243  0.8600147631586239  0.1469626970463551  1.0000
  C   C64       1.0  0.7220756861754013  0.36001272680025675  0.3530371440800693  1.0000
  C   C65       1.0  0.4711715464857206  0.03762769070191041  0.0737220730778247  1.0000
  C   C66       1.0  0.9711726396342116  0.5376267233185318  0.4262760739906071  1.0000
  C   C67       1.0  0.5288261925871254  0.9623736158541122  0.926276212449821  1.0000
  C   C68       1.0  0.02882637333344459  0.46237605451012354  0.5737253720923192  1.0000
  C   C69       1.0  0.539490303162502  0.06365650696576353  0.11693258730456788  1.0000
  C   C70       1.0  0.0394833302825859  0.5636507945455876  0.38306489458688026  1.0000
  C   C71       1.0  0.4605085677138518  0.9363448032376596  0.8830641179474483  1.0000
  C   C72       1.0  0.9605194332812275  0.436355663240896  0.6169381317797829  1.0000
  C   C73       1.0  0.41639700780792305  0.20364041109502304  0.14006640502088888  1.0000
  C   C74       1.0  0.916384131189034  0.7036331287175204  0.3599309350022466  1.0000
  C   C75       1.0  0.5836038472200471  0.7963697082848641  0.8599312484114066  1.0000
  C   C76       1.0  0.08362174372202702  0.29637040489356553  0.640073355582409  1.0000
  C   C77       1.0  0.3258077404348115  0.24690072804465765  0.17059767876448007  1.0000
  C   C78       1.0  0.8257965147948383  0.7468914616199597  0.3293990723821878  1.0000
  C   C79       1.0  0.6741972867311363  0.7531057370312128  0.8294015549404532  1.0000
  C   C80       1.0  0.17419966633698183  0.2531054385647948  0.6706042700217053  1.0000
  C   C81       1.0  0.2906549693349092  0.3442319721262521  0.16693789161077893  1.0000
  C   C82       1.0  0.7906418916077201  0.8442264301233993  0.3330584924539508  1.0000
  C   C83       1.0  0.7093534532780909  0.6557745039324915  0.8330613420958599  1.0000
  C   C84       1.0  0.20935606056433193  0.15577707782844638  0.6669420054638591  1.0000
  C   C85       1.0  0.3465121048155808  0.39945741846767663  0.1325489821223371  1.0000
  C   C86       1.0  0.8465016076969364  0.8994502723764558  0.3674482598158662  1.0000
  C   C87       1.0  0.6534951149543458  0.6005483201378323  0.8674502515825679  1.0000
  C   C88       1.0  0.15349485751763578  0.1005495629476059  0.6325516059850712  1.0000
  C   C89       1.0  0.4390441192355397  0.3588508169647255  0.1025164486012144  1.0000
  C   C90       1.0  0.9390350037632873  0.8588419883888323  0.39748170837577124  1.0000
  C   C91       1.0  0.5609494477090778  0.6411541439061494  0.8974815208747413  1.0000
  C   C92       1.0  0.06096301942884711  0.14116225334716154  0.602517841377491  1.0000
  C   C93       1.0  0.4739932872134603  0.26111105507064286  0.106355122289294  1.0000
  C   C94       1.0  0.9739776057726746  0.7611050738251635  0.39364087187206553  1.0000
  C   C95       1.0  0.5259978030030155  0.7388916970852082  0.893640950850596  1.0000
  C   C96       1.0  0.0260195697230614  0.2389020994298293  0.6063599421062449  1.0000
  Cl  Cl1       1.0  0.2562782856542114  0.1778606895389387  0.2129486237413118  1.0000
  Cl  Cl2       1.0  0.7562630828194444  0.6778514193719831  0.28704816151839196  1.0000
  Cl  Cl3       1.0  0.7437313398189077  0.822146523992025  0.7870528223537291  1.0000
  Cl  Cl4       1.0  0.24372984489574626  0.3221469373873518  0.7129520203337448  1.0000
  Cl  Cl5       1.0  0.8308327952528316  0.3869815750296084  0.151924021990304  1.0000
  Cl  Cl6       1.0  0.3308279728412131  0.8869796724029585  0.3480750622442912  1.0000
  Cl  Cl7       1.0  0.16916862337660632  0.6130226776784158  0.8480742635437082  1.0000
  Cl  Cl8       1.0  0.6691768412060456  0.11302459125541024  0.6519194306285597  1.0000
  Cl  Cl9       1.0  0.29642702868410703  0.519274658710117  0.1275434589882991  1.0000
  Cl  Cl10      1.0  0.796425485427122  0.0192729774261977  0.372451929275421  1.0000
  Cl  Cl11      1.0  0.7035799069738433  0.48072814472355674  0.8724554586566953  1.0000
  Cl  Cl12      1.0  0.20358498770342243  0.9807313045423813  0.6275431957107429  1.0000
  Cl  Cl13      1.0  0.6714338974385541  0.061583655524103206  0.2431970336880056  1.0000
  Cl  Cl14      1.0  0.17141832955321948  0.5615772226012723  0.25680152120119  1.0000
  Cl  Cl15      1.0  0.32857247464228584  0.9384250146085478  0.7568044124076607  1.0000
  Cl  Cl16      1.0  0.8285816685431158  0.43841235427741043  0.7431986606409282  1.0000
  Cl  Cl17      1.0  0.9127063924127798  0.047856985377826816  0.7397034778321157  1.0000
  Cl  Cl18      1.0  0.4126992982664249  0.5478557745498734  0.7602937343012499  1.0000
  Cl  Cl19      1.0  0.08730783131391458  0.9521509765485874  0.2602932274377849  1.0000
  Cl  Cl20      1.0  0.5873124441534828  0.45213824169479017  0.23970676360879392  1.0000
  Cl  Cl21      1.0  0.09206769109025711  0.36151993750676337  0.8349136135342974  1.0000
  Cl  Cl22      1.0  0.5920832225809037  0.8615182168140268  0.6650877230648149  1.0000
  Cl  Cl23      1.0  0.907923967372099  0.6384886850171512  0.16508593622254605  1.0000
  Cl  Cl24      1.0  0.40791656705332713  0.13848089570063143  0.3349121427366554  1.0000
  O   O1        1.0  0.8723513209946675  0.1329124860200821  0.9521233666861091  1.0000
  O   O2        1.0  0.3723596300027481  0.6329135599501472  0.54787564774918  1.0000
  O   O3        1.0  0.1276478293930907  0.86708002236405  0.0478764991048664  1.0000
  O   O4        1.0  0.6276366931692295  0.36708480780290387  0.45212579832561767  1.0000
  O   O5        1.0  0.0358380463591459  0.07820092127903419  0.0236429665287474  1.0000
  O   O6        1.0  0.5358375767446333  0.5782000719167258  0.4763555047341939  1.0000
  O   O7        1.0  0.9641630881558785  0.9218003962544473  0.9763546868901187  1.0000
  O   O8        1.0  0.4641523816829505  0.4218026766079889  0.5236440450127589  1.0000
  O   O9        1.0  0.8642890513521096  0.28526812586932954  0.8943575493550993  1.0000
  O   O10       1.0  0.36429718996957666  0.7852709209609898  0.605644771137925  1.0000
  O   O11       1.0  0.13570804850592566  0.7147265765914173  0.1056448448801461  1.0000
  O   O12       1.0  0.6356999809158452  0.2147245152920334  0.39435762309848593  1.0000
  O   O13       1.0  0.8374583243696991  0.1456608002730277  0.0508065205641728  1.0000
  O   O14       1.0  0.33744685370310634  0.6456576715635695  0.44919151042292066  1.0000
  O   O15       1.0  0.1625459214730824  0.8543375930633633  0.949189868630782  1.0000
  O   O16       1.0  0.6625464291660635  0.35434435417614213  0.5508108838217112  1.0000
  O   O17       1.0  0.014005008566215294  0.2623674249332312  0.1046639999541554  1.0000
  O   O18       1.0  0.5139934589381526  0.7623688216341407  0.39533533326861187  1.0000
  O   O19       1.0  0.9859877060546367  0.7376287304357021  0.8953346016182876  1.0000
  O   O20       1.0  0.48599770233250433  0.2376346643438155  0.6046642164800672  1.0000
  O   O21       1.0  0.5655340038861851  0.012822098799439602  0.0460681965445247  1.0000
  O   O22       1.0  0.06553364030543209  0.5128161528238165  0.45393041879578533  1.0000
  O   O23       1.0  0.43447002889149644  0.9871740931790856  0.9539304050335956  1.0000
  O   O24       1.0  0.9344586528076989  0.4871873368449188  0.5460726075610935  1.0000
  O   O25       1.0  0.33008187418954543  0.03764148290336071  0.0673787742946601  1.0000
  O   O26       1.0  0.8300843343840114  0.5376303586010992  0.4326227090864236  1.0000
  O   O27       1.0  0.6699148040950008  0.962360553783988  0.9326195112335824  1.0000
  O   O28       1.0  0.16991806941307172  0.4623606932003241  0.5673793690906024  1.0000
  O   O29       1.0  0.4405192007167359  0.10666009276481961  0.1457938206024565  1.0000
  O   O30       1.0  0.9405049619629224  0.606651240901698  0.3542054568915205  1.0000
  O   O31       1.0  0.5594773355252228  0.8933404763515184  0.8542060451996392  1.0000
  O   O32       1.0  0.05949397999196999  0.3933508031509447  0.6457978855216736  1.0000
  O   O33       1.0  0.6430909910560985  0.15641537049446444  0.9761678233023191  1.0000
  O   O34       1.0  0.143101761299846  0.6564219095830736  0.5238304034567915  1.0000
  O   O35       1.0  0.3569068144313833  0.8435749328491582  0.0238317264293499  1.0000
  O   O36       1.0  0.8568968255035048  0.3435764654918998  0.4761710426191357  1.0000
  O   O37       1.0  0.6576064541089225  0.8356412577731973  0.008382451551334201  1.0000
  O   O38       1.0  0.1576030981753789  0.3356412970270313  0.4916197787737814  1.0000
  O   O39       1.0  0.34239191960494963  0.1643549159168032  0.9916180463553842  1.0000
  O   O40       1.0  0.8423935091134497  0.6643600059032765  0.5083826154713904  1.0000
  O   O41       1.0  0.8535224818841628  0.9159667682284084  0.0671847499455254  1.0000
  O   O42       1.0  0.3535165905816057  0.41596065847686237  0.4328157104048032  1.0000
  O   O43       1.0  0.14647603386987382  0.08403087302988153  0.9328138516320905  1.0000
  O   O44       1.0  0.6464771138196427  0.5840340329901609  0.5671854196077888  1.0000
