data_image0
_chemical_formula_structural       Hg4H24C28N4Cl4O20
_chemical_formula_sum              "Hg4 H24 C28 N4 Cl4 O20"
_cell_length_a       7.707386496499515
_cell_length_b       9.948267732004734
_cell_length_c       12.440267288676266
_cell_angle_alpha    89.99996579806414
_cell_angle_beta     93.10023799930667
_cell_angle_gamma    89.9998953135115

_space_group_name_H-M_alt    "P 1"
_space_group_IT_number       1

loop_
  _space_group_symop_operation_xyz
  'x, y, z'

loop_
  _atom_site_type_symbol
  _atom_site_label
  _atom_site_symmetry_multiplicity
  _atom_site_fract_x
  _atom_site_fract_y
  _atom_site_fract_z
  _atom_site_occupancy
  Hg  Hg1       1.0  0.1996078601794053  0.5801941730331421  0.4380240150416626  1.0000
  Hg  Hg2       1.0  0.3003862713660439  0.08019664037639272  0.061973305252031693  1.0000
  Hg  Hg3       1.0  0.8003886014704804  0.4198039680537421  0.5619733669872602  1.0000
  Hg  Hg4       1.0  0.6996101902778022  0.9198065267111345  0.9380240767754914  1.0000
  H   H1        1.0  0.25770646295919875  0.6523131337036859  0.6705812073842026  1.0000
  H   H2        1.0  0.24229375905453313  0.1523144793791857  0.8294160632346959  1.0000
  H   H3        1.0  0.7422938967266292  0.34768500738039165  0.32941629445604553  1.0000
  H   H4        1.0  0.757705301282357  0.8476866773062144  0.1705813986676006  1.0000
  H   H5        1.0  0.3947171661409996  0.5446219392472573  0.6347430592016609  1.0000
  H   H6        1.0  0.1052833143904692  0.044623452757079504  0.8652542716671549  1.0000
  H   H7        1.0  0.6052818942007222  0.4553751966376256  0.36525440270175846  1.0000
  H   H8        1.0  0.8947157517672794  0.9553766987278821  0.1347439942636086  1.0000
  H   H9        1.0  0.7099174147903328  0.1507382190343947  0.22347948422570602  1.0000
  H   H10       1.0  0.7900770818904024  0.650744790202296  0.2765213754466771  1.0000
  H   H11       1.0  0.2900777766196967  0.8492538908511449  0.7765218780087366  1.0000
  H   H12       1.0  0.2099207081945735  0.3492603872830315  0.7234800666583254  1.0000
  H   H13       1.0  0.3075657668396233  0.1669503292330816  0.3392221324057872  1.0000
  H   H14       1.0  0.1924372809573285  0.666954109505305  0.16077943905077063  1.0000
  H   H15       1.0  0.6924398367858373  0.833046806644695  0.6607819614086594  1.0000
  H   H16       1.0  0.8075696103681196  0.3330480523727816  0.8392230866429956  1.0000
  H   H17       1.0  0.007791301721624701  0.0793925720410797  0.3736186198676208  1.0000
  H   H18       1.0  0.4922067239669375  0.5793929367611527  0.1263780166582649  1.0000
  H   H19       1.0  0.9922077644325002  0.9206105950442737  0.6263796460622971  1.0000
  H   H20       1.0  0.5077949467010895  0.4206072147216419  0.8736211331748933  1.0000
  H   H21       1.0  0.9710008848799632  0.8345052497429676  0.4042054634556536  1.0000
  H   H22       1.0  0.5289957286203374  0.3345050615832292  0.0957897450834153  1.0000
  H   H23       1.0  0.028991667091062795  0.1654959069477258  0.59579019070474  1.0000
  H   H24       1.0  0.47100591877030956  0.6654940847006473  0.9042061886372821  1.0000
  C   C1        1.0  0.3897262863144775  0.8317866138007731  0.35625917537016966  1.0000
  C   C2        1.0  0.110272479388442  0.3317902953995429  0.1437437921105484  1.0000
  C   C3        1.0  0.6102728089451119  0.16821052208229761  0.6437431107023741  1.0000
  C   C4        1.0  0.8897266100454644  0.6682118664844695  0.8562576899323987  1.0000
  C   C5        1.0  0.4214405169997448  0.9688687538926005  0.3414366744376452  1.0000
  C   C6        1.0  0.0785618118471163  0.4688724694831735  0.1585655321328687  1.0000
  C   C7        1.0  0.5785624821142293  0.03112938718747671  0.6585665354741154  1.0000
  C   C8        1.0  0.921443768492523  0.5311306975965878  0.8414353455671347  1.0000
  C   C9        1.0  0.28387346818352915  0.05973871244571429  0.348701222712684  1.0000
  C   C10       1.0  0.21612722083177263  0.5597414609391435  0.1512979167670494  1.0000
  C   C11       1.0  0.7161295018334215  0.9402584234357578  0.6512979670584259  1.0000
  C   C12       1.0  0.7838770543453178  0.4402596957416022  0.8487021169682336  1.0000
  C   C13       1.0  0.1193243393131667  0.012959823277277797  0.3691159748604989  1.0000
  C   C14       1.0  0.38067256396143995  0.5129623533742347  0.1308830709793511  1.0000
  C   C15       1.0  0.880672122336712  0.9870383178096132  0.6308814071684311  1.0000
  C   C16       1.0  0.6193291125238076  0.4870398085085129  0.8691168828814356  1.0000
  C   C17       1.0  0.09683713377048521  0.8761744378665384  0.3860546141931069  1.0000
  C   C18       1.0  0.4031601911146012  0.37617772586250453  0.11394346434784101  1.0000
  C   C19       1.0  0.9031580168972014  0.12382169282163602  0.613941119842906  1.0000
  C   C20       1.0  0.5968401743848446  0.6238254412219106  0.8860548415191831  1.0000
  C   C21       1.0  0.5248568430234855  0.7243336464552784  0.3383115857693824  1.0000
  C   C22       1.0  0.9751413750267021  0.22433780195694916  0.16168935254057007  1.0000
  C   C23       1.0  0.47513833674000955  0.2756644946316342  0.6616881684070037  1.0000
  C   C24       1.0  0.0248577027655088  0.7756663703279261  0.8383105214454433  1.0000
  C   C25       1.0  0.5972999860083021  0.028220449011612896  0.3243729814487324  1.0000
  C   C26       1.0  0.9026973976581872  0.5282229145612759  0.17562722261580893  1.0000
  C   C27       1.0  0.40270044933290455  0.9717776920685213  0.6756349727579404  1.0000
  C   C28       1.0  0.0973029794793376  0.4717812577226609  0.8243726913073033  1.0000
  N   N1        1.0  0.22990959903144412  0.7898165970856185  0.38097930442345534  1.0000
  N   N2        1.0  0.2700879564381751  0.2898200702071136  0.1190220385447915  1.0000
  N   N3        1.0  0.7700855574570937  0.21017852840212467  0.6190172336410242  1.0000
  N   N4        1.0  0.729911115534385  0.710184102078067  0.880977031413032  1.0000
  Cl  Cl1       1.0  0.12613749697066373  0.34919923089975663  0.45095781000787133  1.0000
  Cl  Cl2       1.0  0.37386120365393793  0.8492028367447734  0.049041931618283706  1.0000
  Cl  Cl3       1.0  0.8738602756662388  0.650796899785334  0.5490412200150985  1.0000
  Cl  Cl4       1.0  0.6261378741382657  0.15080133554010192  0.9509579423677295  1.0000
  O   O1        1.0  0.34420344753696247  0.6344185194884204  0.6171809682050835  1.0000
  O   O2        1.0  0.15579681743356136  0.1344199482284623  0.882816312425291  1.0000
  O   O3        1.0  0.6557969121488655  0.365579621595657  0.3828165336351645  1.0000
  O   O4        1.0  0.8442035480695012  0.8655802032555687  0.11718199344257839  1.0000
  O   O5        1.0  0.4951235078356149  0.6060477358882324  0.3699849681757427  1.0000
  O   O6        1.0  0.004871849349072501  0.10605358771822182  0.130010769533456  1.0000
  O   O7        1.0  0.5048716428320716  0.39394839479994914  0.630010765860277  1.0000
  O   O8        1.0  0.9951272226234948  0.8939505845669518  0.8699883004243675  1.0000
  O   O9        1.0  0.6573475813276985  0.7599417801146942  0.2889608346530821  1.0000
  O   O10       1.0  0.8426544609233203  0.2599420661794198  0.21104181160396956  1.0000
  O   O11       1.0  0.3426528190932245  0.2400583713675176  0.7110422953839048  1.0000
  O   O12       1.0  0.15734722138519433  0.7400570801026305  0.7889589462858524  1.0000
  O   O13       1.0  0.7145971929738265  0.02909988962500171  0.39493730681674327  1.0000
  O   O14       1.0  0.7854119176033549  0.5291055897624446  0.10506808035794533  1.0000
  O   O15       1.0  0.28541362549423616  0.9708952358478555  0.6050693588312442  1.0000
  O   O16       1.0  0.21459888339009583  0.47090260331299316  0.8949361732018205  1.0000
  O   O17       1.0  0.6008902067865024  0.0887345347770108  0.22921029264106352  1.0000
  O   O18       1.0  0.8991057380886076  0.5887359294371919  0.27079064165905464  1.0000
  O   O19       1.0  0.3991076124075477  0.9112615959056497  0.7707951696073964  1.0000
  O   O20       1.0  0.10089335134650669  0.4112652272466946  0.7292108403841766  1.0000
