data_image0
_chemical_formula_structural       Ho2H38C60N10O14
_chemical_formula_sum              "Ho2 H38 C60 N10 O14"
_cell_length_a       10.422443452162005
_cell_length_b       11.201362526892495
_cell_length_c       13.389162448126461
_cell_angle_alpha    109.88259989772324
_cell_angle_beta     101.34531018997305
_cell_angle_gamma    108.1947235126217

_space_group_name_H-M_alt    "P 1"
_space_group_IT_number       1

loop_
  _space_group_symop_operation_xyz
  'x, y, z'

loop_
  _atom_site_type_symbol
  _atom_site_label
  _atom_site_symmetry_multiplicity
  _atom_site_fract_x
  _atom_site_fract_y
  _atom_site_fract_z
  _atom_site_occupancy
  Ho  Ho1       1.0  0.5001884189887349  0.08488864160715077  0.37589533955630117  1.0000
  Ho  Ho2       1.0  0.49981000925617275  0.9151090375080881  0.6241037667125084  1.0000
  H   H1        1.0  0.4143992424209769  0.5625501691446216  0.9884258612116098  1.0000
  H   H2        1.0  0.5855980998631053  0.4374495837439765  0.011574416801266795  1.0000
  H   H3        1.0  0.27023797631051844  0.3202041302604002  0.9590661825489376  1.0000
  H   H4        1.0  0.7297617655339578  0.6797966742634429  0.04093326945488941  1.0000
  H   H5        1.0  0.9610301114450621  0.45121569403217876  0.3867991667186175  1.0000
  H   H6        1.0  0.03896669013693808  0.5487850993312264  0.6131990844829431  1.0000
  H   H7        1.0  0.03019271632260966  0.3084718682633677  0.47781810053275103  1.0000
  H   H8        1.0  0.9698012500023052  0.6915268350791878  0.5221783731629941  1.0000
  H   H9        1.0  0.238695439425932  0.2483569089564028  0.4489057993753888  1.0000
  H   H10       1.0  0.7613017985037017  0.7516449238177785  0.5510943088600797  1.0000
  H   H11       1.0  0.9275355991110458  0.3111231225453821  0.7066472202512344  1.0000
  H   H12       1.0  0.07247537615254632  0.6888881168215377  0.29336290440325297  1.0000
  H   H13       1.0  0.19560340371511128  0.4405802988734849  0.7875515490918161  1.0000
  H   H14       1.0  0.8044058235541268  0.5594267787495895  0.2124541333508674  1.0000
  H   H15       1.0  0.34461321381837007  0.32452305871463244  0.7052959359479232  1.0000
  H   H16       1.0  0.6553937201977788  0.6754808904631486  0.2947085028383399  1.0000
  H   H17       1.0  0.14960711619077208  0.9387199862141455  0.22839084175252103  1.0000
  H   H18       1.0  0.850392292358606  0.061277696962967816  0.7716084159567274  1.0000
  H   H19       1.0  0.9642189576552979  0.780179872263048  0.03366959200874223  1.0000
  H   H20       1.0  0.03578078549108448  0.21982093431115146  0.9663283670331707  1.0000
  H   H21       1.0  0.04535033073221227  0.6846475240245694  0.873325773342401  1.0000
  H   H22       1.0  0.9546498500637031  0.31535432401076957  0.12667254977150585  1.0000
  H   H23       1.0  0.2535354684516448  0.6808767424360198  0.8029321889776995  1.0000
  H   H24       1.0  0.7464651506447665  0.3191261480856368  0.19706575172724428  1.0000
  H   H25       1.0  0.5136774149831921  0.7496672504425773  0.8439418186413334  1.0000
  H   H26       1.0  0.4863224325176319  0.25033147624603913  0.15605631017798774  1.0000
  H   H27       1.0  0.7647796316767952  0.8830787427456602  0.9842809886311912  1.0000
  H   H28       1.0  0.2352210904721588  0.11692206584005757  0.015718614813074815  1.0000
  H   H29       1.0  0.9265505547468891  0.039611297087098804  0.18678574821548466  1.0000
  H   H30       1.0  0.07345016675111542  0.9603895104734406  0.8132146017097385  1.0000
  H   H31       1.0  0.8143738396355572  0.10983044502321349  0.33362367154344946  1.0000
  H   H32       1.0  0.18562512996237496  0.8901661946424043  0.6663767150557193  1.0000
  H   H33       1.0  0.4916347715456125  0.7574832507304876  0.1822695717086092  1.0000
  H   H34       1.0  0.5083646370037656  0.2425144324466259  0.8177296860006393  1.0000
  H   H35       1.0  0.7400480046404495  0.3480900356519427  0.4702086411993348  1.0000
  H   H36       1.0  0.25995282251389534  0.6519086940733629  0.5297903855413821  1.0000
  H   H37       1.0  0.6359422716684406  0.3533802627736051  0.3704072021264296  1.0000
  H   H38       1.0  0.3640576801868249  0.6466163840294143  0.6295910964702998  1.0000
  C   C1        1.0  0.4265959653458963  0.7462031137562661  0.35950517908909063  1.0000
  C   C2        1.0  0.573403570393495  0.2538018546394696  0.6404909474360848  1.0000
  C   C3        1.0  0.3799021945231473  0.6243538058459066  0.24727672672368337  1.0000
  C   C4        1.0  0.6200976516757776  0.3756449187923464  0.752722895057559  1.0000
  C   C5        1.0  0.3831653517585281  0.5432131412188355  0.05628501083842252  1.0000
  C   C6        1.0  0.6168334110833767  0.4567876612934895  0.9437127967630514  1.0000
  C   C7        1.0  0.3026889431098637  0.40889847437107807  0.04038269737866777  1.0000
  C   C8        1.0  0.6973093801296456  0.5911012836045728  0.9596169855936834  1.0000
  C   C9        1.0  0.2971892334545032  0.4853312396334175  0.22243393202319345  1.0000
  C   C10       1.0  0.7028082144859268  0.5146664354199472  0.7775650228051845  1.0000
  C   C11       1.0  0.23437090728477727  0.442930724362185  0.302610383814752  1.0000
  C   C12       1.0  0.7656241436990641  0.5570659031566549  0.6973864110988401  1.0000
  C   C13       1.0  0.052437305499871856  0.42558644239086607  0.37818322270548776  1.0000
  C   C14       1.0  0.9475567651794918  0.5744101810660992  0.6218134207676655  1.0000
  C   C15       1.0  0.09035489907991227  0.34511720325925677  0.4283362456620452  1.0000
  C   C16       1.0  0.9096391742032565  0.6548794242984284  0.5716574118872727  1.0000
  C   C17       1.0  0.20571666723253654  0.31253971857503154  0.4131051079248138  1.0000
  C   C18       1.0  0.7942759848418675  0.6874558583337418  0.5868917665168709  1.0000
  C   C19       1.0  0.28062377437242964  0.3631257760921685  0.3498733862961885  1.0000
  C   C20       1.0  0.7193717155628503  0.6368718949381742  0.6501222797274764  1.0000
  C   C21       1.0  0.4058241617602789  0.32891910353284004  0.33437145332992907  1.0000
  C   C22       1.0  0.5941715362329417  0.6710744067011446  0.6656252987295089  1.0000
  C   C23       1.0  0.7729867409403682  0.06082614135429049  0.5422985884735211  1.0000
  C   C24       1.0  0.22701738000331048  0.9391850818816677  0.4577015183264095  1.0000
  C   C25       1.0  0.9347267649446567  0.12762804424768598  0.5878491972917956  1.0000
  C   C26       1.0  0.06527603523899461  0.8723800423026944  0.4121587750636522  1.0000
  C   C27       1.0  0.9963972243786398  0.2621788167815994  0.676078011668295  1.0000
  C   C28       1.0  0.0036080810217455433  0.7378282435688064  0.3239278114935971  1.0000
  C   C29       1.0  0.14497673163476324  0.33476552168115603  0.7205161913598346  1.0000
  C   C30       1.0  0.8550339116356368  0.6652425983893903  0.2794922460381527  1.0000
  C   C31       1.0  0.2280643432826038  0.2696630039833181  0.6751445381980757  1.0000
  C   C32       1.0  0.7719430277321351  0.7303419856304245  0.32486101114113813  1.0000
  C   C33       1.0  0.027321719703820697  0.0700668182355102  0.5474957361002167  1.0000
  C   C34       1.0  0.9726821664406486  0.929939194541518  0.45251106451115675  1.0000
  C   C35       1.0  0.18040989928910264  0.8956098195351597  0.15542807483944898  1.0000
  C   C36       1.0  0.8195909278652422  0.10438891019014557  0.8445709519012679  1.0000
  C   C37       1.0  0.0779340450380203  0.8074406723704185  0.04724424233765498  1.0000
  C   C38       1.0  0.9220652585059597  0.19255908966709967  0.9527555920751423  1.0000
  C   C39       1.0  0.12288163764669946  0.7549377449915013  0.9579186852494743  1.0000
  C   C40       1.0  0.8771182105050741  0.24506098272229332  0.042078697088896895  1.0000
  C   C41       1.0  0.27122808048920166  0.7933885922704035  0.9769944414990873  1.0000
  C   C42       1.0  0.728771328711133  0.2066090919318881  0.023004069729204  1.0000
  C   C43       1.0  0.36695966635591765  0.8834123702404925  0.08925048692184147  1.0000
  C   C44       1.0  0.6330397415425111  0.1165853119114431  0.9107495172683642  1.0000
  C   C45       1.0  0.327813176927961  0.7467406774209876  0.889196015895223  1.0000
  C   C46       1.0  0.6721852513169396  0.2532570016942585  0.11080309037358661  1.0000
  C   C47       1.0  0.472253272431864  0.7860726058901903  0.9116839285079124  1.0000
  C   C48       1.0  0.5277471164219918  0.21392508134879748  0.08831548064176789  1.0000
  C   C49       1.0  0.57158898326081  0.8757979011174728  0.024000331573070494  1.0000
  C   C50       1.0  0.42841096664160006  0.1241987426100124  0.976000206466537  1.0000
  C   C51       1.0  0.5194314276355954  0.9252318049288848  0.11319800898272102  1.0000
  C   C52       1.0  0.48056764696773496  0.07476275587632131  0.8868018009128986  1.0000
  C   C53       1.0  0.7217132395191256  0.9186238069112349  0.051334495692010894  1.0000
  C   C54       1.0  0.2782871486837735  0.0813738793025678  0.9486656599386264  1.0000
  C   C55       1.0  0.8101932124661957  0.003296865523807899  0.16224937678118312  1.0000
  C   C56       1.0  0.18980761273530078  0.9967018611259634  0.8377518894024052  1.0000
  C   C57       1.0  0.7485711305330014  0.0448519638911336  0.24518317759311964  1.0000
  C   C58       1.0  0.2514283817198687  0.9551436383752117  0.754816996374494  1.0000
  C   C59       1.0  0.4238290040232896  0.6510051920159299  0.162168178383304  1.0000
  C   C60       1.0  0.5761725927737942  0.34899769846688133  0.8378328996859068  1.0000
  N   N1        1.0  0.2611614523150009  0.379526159413487  0.12107844027806888  1.0000
  N   N2        1.0  0.7388388315334566  0.6204736066859055  0.8789215455751601  1.0000
  N   N3        1.0  0.12196890708194275  0.4736381067301921  0.3159246784249703  1.0000
  N   N4        1.0  0.878027020502877  0.5263606057612902  0.6840713516706812  1.0000
  N   N5        1.0  0.1710534603257301  0.14092786913867172  0.5921108456020718  1.0000
  N   N6        1.0  0.8289499894710985  0.8590771042275803  0.40789409797539383  1.0000
  N   N7        1.0  0.320751675891259  0.9313418041619954  0.17650688196421543  1.0000
  N   N8        1.0  0.6792455457123198  0.06865067375977668  0.8234890624231495  1.0000
  N   N9        1.0  0.6077067055478053  0.007830867216036097  0.22203742784793687  1.0000
  N   N10       1.0  0.39229182640059423  0.9921647309884348  0.7779625946792451  1.0000
  O   O1        1.0  0.456357685250687  0.864756447280186  0.3586892803945716  1.0000
  O   O2        1.0  0.5436335462658946  0.13523808000485357  0.6413100644585086  1.0000
  O   O3        1.0  0.4355973176498651  0.7260598093714562  0.44778846709746034  1.0000
  O   O4        1.0  0.5644019826393673  0.2739399475401641  0.5522150997201293  1.0000
  O   O5        1.0  0.5183044651619326  0.41996774037992424  0.33949940896224723  1.0000
  O   O6        1.0  0.4816977773426245  0.5800320307676755  0.6605031192147307  1.0000
  O   O7        1.0  0.3873634291680972  0.20408916755071263  0.3171161631500681  1.0000
  O   O8        1.0  0.6126353356266634  0.7959116380371539  0.6828794050085348  1.0000
  O   O9        1.0  0.7167536656013169  0.10178593668305069  0.4748254800845686  1.0000
  O   O10       1.0  0.28325512206552617  0.8982200964033424  0.5251820777289993  1.0000
  O   O11       1.0  0.7091544900398147  0.9859595989485752  0.5850530486038963  1.0000
  O   O12       1.0  0.2908400104776803  0.014038053667370296  0.41495291671274964  1.0000
  O   O13       1.0  0.6891074021176777  0.29765541294879944  0.38896458292255426  1.0000
  O   O14       1.0  0.3108958258989674  0.7023443704621073  0.611032124847199  1.0000
