data_image0
_chemical_formula_structural       Ni3H14C16O12
_chemical_formula_sum              "Ni3 H14 C16 O12"
_cell_length_a       6.1973465630076
_cell_length_b       6.621724021823708
_cell_length_c       10.205544332773497
_cell_angle_alpha    82.8229932983164
_cell_angle_beta     83.25391315106974
_cell_angle_gamma    85.58824098213069

_space_group_name_H-M_alt    "P 1"
_space_group_IT_number       1

loop_
  _space_group_symop_operation_xyz
  'x, y, z'

loop_
  _atom_site_type_symbol
  _atom_site_label
  _atom_site_symmetry_multiplicity
  _atom_site_fract_x
  _atom_site_fract_y
  _atom_site_fract_z
  _atom_site_occupancy
  Ni  Ni1       1.0  0.521475658257053  0.2618943868554666  0.9947048293837638  1.0000
  Ni  Ni2       1.0  0.47852703236019783  0.7381056076957148  0.005295574547147924  1.0000
  Ni  Ni3       1.0  6.596244475086914e-07  0.49999997171753546  0.9999999680132133  1.0000
  H   H1        1.0  0.4065837963124465  0.30939056189055236  0.4124187834439325  1.0000
  H   H2        1.0  0.5934120616324634  0.6906139595681252  0.5875778151434687  1.0000
  H   H3        1.0  0.26834382130022044  0.33652016508671767  0.6504808250672268  1.0000
  H   H4        1.0  0.7316552966879257  0.6634843634631266  0.34951650706509696  1.0000
  H   H5        1.0  0.6347289890711991  0.1905556640500236  0.575500676327664  1.0000
  H   H6        1.0  0.36527051962881524  0.80944276429954  0.42449716628036066  1.0000
  H   H7        1.0  0.7713086910139566  0.1686382043640292  0.3363165576069349  1.0000
  H   H8        1.0  0.22869064188209623  0.8313633081460522  0.663682985160122  1.0000
  H   H9        1.0  0.6660061636401621  0.4632237934486127  0.15091486039997193  1.0000
  H   H10       1.0  0.3339948041654991  0.5367777311221502  0.8490855379887704  1.0000
  H   H11       1.0  0.8198645831512222  0.9152638411412323  0.9762366563463231  1.0000
  H   H12       1.0  0.1801380391160237  0.08473772955058217  0.023766553060980296  1.0000
  H   H13       1.0  0.7591261544085982  0.9412422409795054  0.12843649761735776  1.0000
  H   H14       1.0  0.2408764776346359  0.05875934674250521  0.871567689488387  1.0000
  C   C1        1.0  0.18337460725181393  0.22404462389270208  0.2193038784995949  1.0000
  C   C2        1.0  0.8166247939942509  0.7759553124767391  0.7806928587910633  1.0000
  C   C3        1.0  0.09805851694367358  0.23683861152779426  0.3605988218733458  1.0000
  C   C4        1.0  0.9019425485399567  0.7631613879928949  0.6394017041343145  1.0000
  C   C5        1.0  0.23824142862291345  0.28204833079179537  0.44952477191295503  1.0000
  C   C6        1.0  0.7617612228903923  0.7179515956386239  0.5504717212241913  1.0000
  C   C7        1.0  0.1612361161310503  0.2972724674367839  0.581435922425399  1.0000
  C   C8        1.0  0.8387616014073628  0.7027290670730009  0.41856472011685497  1.0000
  C   C9        1.0  0.9426804000954547  0.2664494299331038  0.6268544882226763  1.0000
  C   C10       1.0  0.05732065561218751  0.7335505525573964  0.37314506008655  1.0000
  C   C11       1.0  0.8030796120822357  0.2179003457686548  0.5382733156331909  1.0000
  C   C12       1.0  0.19691829103613404  0.782098121610801  0.46172660444847213  1.0000
  C   C13       1.0  0.8792847930769768  0.2052058321363717  0.40579877143944987  1.0000
  C   C14       1.0  0.12071626263066552  0.7947941503541284  0.5942007768697763  1.0000
  C   C15       1.0  0.8602026096130189  0.2915089505568957  0.7685118122401419  1.0000
  C   C16       1.0  0.1397986805545059  0.708488049954212  0.23149190210069293  1.0000
  O   O1        1.0  0.046006387403089405  0.21061949156801765  0.1350068004894069  1.0000
  O   O2        1.0  0.9539964106681112  0.7893789949632789  0.8649947087588641  1.0000
  O   O3        1.0  0.38779451835900863  0.22680264587903307  0.18795406258280423  1.0000
  O   O4        1.0  0.6122032968573735  0.7731973635806779  0.8120467075783749  1.0000
  O   O5        1.0  0.0016939623553966035  0.3296009639223882  0.8420966578546895  1.0000
  O   O6        1.0  0.9983075719660944  0.6703913762875615  0.1579025508507215  1.0000
  O   O7        1.0  0.6576925859073481  0.27380388505984843  0.8044468937032717  1.0000
  O   O8        1.0  0.3423148824328024  0.7261976196328702  0.1955530163784402  1.0000
  O   O9        1.0  0.684887072935574  0.48611309055229407  0.054075006939981976  1.0000
  O   O10       1.0  0.3151139925480564  0.513886908968395  0.9459255190676857  1.0000
  O   O11       1.0  0.7007832844372786  0.9701270806437704  0.04269197319735698  1.0000
  O   O12       1.0  0.29921787872432054  0.029871393826844894  0.9573086804292357  1.0000
