data_image0
_chemical_formula_structural       Zn4H36C52N12O16
_chemical_formula_sum              "Zn4 H36 C52 N12 O16"
_cell_length_a       7.743229139
_cell_length_b       14.80148410230787
_cell_length_c       16.0447
_cell_angle_alpha    107.76362012453428
_cell_angle_beta     90.0
_cell_angle_gamma    90.0

_space_group_name_H-M_alt    "P 1"
_space_group_IT_number       1

loop_
  _space_group_symop_operation_xyz
  'x, y, z'

loop_
  _atom_site_type_symbol
  _atom_site_label
  _atom_site_symmetry_multiplicity
  _atom_site_fract_x
  _atom_site_fract_y
  _atom_site_fract_z
  _atom_site_occupancy
  Zn  Zn1       1.0  0.004326360410964  0.6363868059825464  0.8090754178340449  1.0000
  Zn  Zn2       1.0  0.5043270617333562  0.3636126116453227  0.6909247298861845  1.0000
  Zn  Zn3       1.0  0.9956711678812198  0.3636126116453227  0.19092535314495515  1.0000
  Zn  Zn4       1.0  0.4956769238131642  0.6363868059825464  0.30907541783404474  1.0000
  H   H1        1.0  0.021157839585924893  0.4872154026449564  0.856930630001628  1.0000
  H   H2        1.0  0.5211598323591886  0.5127840149829126  0.6430701409773789  1.0000
  H   H3        1.0  0.9788396887062587  0.5127840149829126  0.14306889445983734  1.0000
  H   H4        1.0  0.47884286173647433  0.48721469321368727  0.35692980707279537  1.0000
  H   H5        1.0  0.16626009341707965  0.4746655635101221  0.7777498101161912  1.0000
  H   H6        1.0  0.6662582118377358  0.525333854117747  0.722250960862816  1.0000
  H   H7        1.0  0.8337387263259686  0.5253352729802856  0.22225073694416153  1.0000
  H   H8        1.0  0.333741899356184  0.4746648540788598  0.27774836392858765  1.0000
  H   H9        1.0  0.027170834831729  0.760094592809871  0.9977114786650959  1.0000
  H   H10       1.0  0.5271676618015133  0.23990553424926736  0.502288868725195  1.0000
  H   H11       1.0  0.9728292763621906  0.23990553424926736  0.0022888687251950202  1.0000
  H   H12       1.0  0.4728285750397987  0.7600953022411403  0.49770980855883823  1.0000
  H   H13       1.0  0.10164493209116897  0.551892832506141  0.009840937728164087  1.0000
  H   H14       1.0  0.6016456334135609  0.4481094228468052  0.4901606319310759  1.0000
  H   H15       1.0  0.8983525962010148  0.4481065851217282  0.9901598332508429  1.0000
  H   H16       1.0  0.3983557692312302  0.5518914136436024  0.5098399151292767  1.0000
  H   H17       1.0  0.4292304851550881  0.5738738509207053  0.800481571273906  1.0000
  H   H18       1.0  0.9292324779283518  0.4261269855697023  0.6995195990452103  1.0000
  H   H19       1.0  0.5707670431370886  0.4261262761384331  0.19951877611638483  1.0000
  H   H20       1.0  0.07077150761817558  0.5738731414894362  0.3004807483450805  1.0000
  H   H21       1.0  0.2635450873746876  0.757630738015344  0.7662059807024094  1.0000
  H   H22       1.0  0.7635432057953435  0.2423672607499938  0.7337925211601686  1.0000
  H   H23       1.0  0.7364563152700967  0.2423672607499938  0.23379376767771018  1.0000
  H   H24       1.0  0.23645561394770445  0.7576349946029524  0.2662053089464465  1.0000
  H   H25       1.0  0.455024633360523  0.896241547494192  0.8421549233682484  1.0000
  H   H26       1.0  0.9550240432320507  0.10375857956494633  0.6578435542457302  1.0000
  H   H27       1.0  0.544974186382525  0.10375787013368412  0.15784460109321694  1.0000
  H   H28       1.0  0.0449799423144768  0.8962450946505314  0.34215467520099463  1.0000
  H   H29       1.0  0.2122602819180273  0.8995233765409838  0.08498215399271207  1.0000
  H   H30       1.0  0.7122571088878118  0.1004760410868926  0.4150161239512116  1.0000
  H   H31       1.0  0.7877398292758926  0.1004753316556233  0.9150171707986914  1.0000
  H   H32       1.0  0.28774171085523637  0.8995262142660536  0.5849829526729452  1.0000
  H   H33       1.0  0.624160787862742  0.6507712343769969  0.06444118533493544  1.0000
  H   H34       1.0  0.12416008654034977  0.3492303115446802  0.43555893813670116  1.0000
  H   H35       1.0  0.3758393233311779  0.3492274738196031  0.9355587627152391  1.0000
  H   H36       1.0  0.87584002465357  0.6507712343769969  0.5644405620761647  1.0000
  C   C1        1.0  0.12310755408216068  0.7937521404680865  0.9672104774265051  1.0000
  C   C2        1.0  0.6231056725028168  0.20624585829724407  0.5327886476948437  1.0000
  C   C3        1.0  0.8768912656608876  0.20624585829724407  0.03278927095361441  1.0000
  C   C4        1.0  0.3768931472402315  0.7937556876244329  0.4672096060004804  1.0000
  C   C5        1.0  0.2538721203662959  0.5554392794159781  0.8979058455932647  1.0000
  C   C6        1.0  0.7538728216886881  0.444560138211891  0.6020955486445133  1.0000
  C   C7        1.0  0.7461241164750163  0.4445594287806216  0.1020953489744514  1.0000
  C   C8        1.0  0.2461285809561033  0.5554392794159781  0.3979039758169521  1.0000
  C   C9        1.0  0.22604651994400624  0.5687361496762477  0.9866937905368901  1.0000
  C   C10       1.0  0.7260446383646695  0.4312668151079677  0.5133073555336339  1.0000
  C   C11       1.0  0.7739535912499063  0.4312632679516213  0.013306357183346107  1.0000
  C   C12       1.0  0.2739554728292504  0.5687340213824399  0.4866938147854897  1.0000
  C   C13       1.0  0.4128613453912138  0.5799174958946836  0.869351158225065  1.0000
  C   C14       1.0  0.9128594638118698  0.42008405002699334  0.630650835022884  1.0000
  C   C15       1.0  0.5871387658027061  0.42008263116446193  0.13065043568276744  1.0000
  C   C16       1.0  0.087143230283786  0.5799167864634144  0.36934846551992717  1.0000
  C   C17       1.0  0.33355463898018906  0.6130961774468489  0.141819208376198  1.0000
  C   C18       1.0  0.8335514659499734  0.3869039496122966  0.35818113901409293  1.0000
  C   C19       1.0  0.6664454722137305  0.386902530749758  0.8581813629327544  1.0000
  C   C20       1.0  0.1664486452439462  0.6130954680155796  0.6418190087061433  1.0000
  C   C21       1.0  0.3590491705840222  0.6041651472112123  0.04693237959891415  1.0000
  C   C22       1.0  0.8590511633572859  0.3958363987104647  0.4530696136490421  1.0000
  C   C23       1.0  0.6409496491590259  0.3958335609853947  0.9530675684512675  1.0000
  C   C24       1.0  0.14095153073837  0.6041637283486736  0.5469326035175684  1.0000
  C   C25       1.0  0.255181651547403  0.7927482952235536  0.8364206739813795  1.0000
  C   C26       1.0  0.7551810614189305  0.20725041297304617  0.6635786508100241  1.0000
  C   C27       1.0  0.7448184596465168  0.20725041297304617  0.16357927406879472  1.0000
  C   C28       1.0  0.2448216326767252  0.7927518423799003  0.3364204258141257  1.0000
  C   C29       1.0  0.3609785981822284  0.868341744008859  0.8783232659935366  1.0000
  C   C30       1.0  0.8609780080537561  0.1316562547564786  0.6216752358690415  1.0000
  C   C31       1.0  0.6390215130116914  0.1316562547564786  0.121676482386583  1.0000
  C   C32       1.0  0.13902856039451444  0.8683460005964676  0.3783238407551082  1.0000
  C   C33       1.0  0.34512345586419  0.9078244318104396  0.9693605383738841  1.0000
  C   C34       1.0  0.8451215742848461  0.0921756952487058  0.5306379392401014  1.0000
  C   C35       1.0  0.6548753638788583  0.09217427638616733  0.030639409676297212  1.0000
  C   C36       1.0  0.1548785369090737  0.9078279789667791  0.4693602902066304  1.0000
  C   C37       1.0  0.224592346265581  0.8697542216638895  0.01425029856704192  1.0000
  C   C38       1.0  0.7245904646862371  0.130245905395256  0.4857488023057074  1.0000
  C   C39       1.0  0.7754077649283388  0.1302451959639868  0.9857498491531873  1.0000
  C   C40       1.0  0.2754109379585543  0.8697563499576901  0.5142490278009078  1.0000
  C   C41       1.0  0.7230303920365486  0.6323849041985099  0.9005846534030015  1.0000
  C   C42       1.0  0.22303485651762855  0.3676130945668278  0.5994150949771183  1.0000
  C   C43       1.0  0.2769658448047636  0.3676152228606284  0.09941507072851861  1.0000
  C   C44       1.0  0.7769704204797634  0.6323863230610486  0.4005850527431179  1.0000
  C   C45       1.0  0.5465381333848213  0.613948204399982  0.929260393256861  1.0000
  C   C46       1.0  0.0465361406115576  0.386056179246772  0.570741775412543  1.0000
  C   C47       1.0  0.4534568120056264  0.3860512132278943  0.07074037772213873  1.0000
  C   C48       1.0  0.9534639705823622  0.613948204399982  0.42926039325686116  1.0000
  C   C49       1.0  0.5190315213271646  0.6263171385614186  0.01818044604947031  1.0000
  C   C50       1.0  0.0190359858082445  0.37368440736025843  0.4818203006809371  1.0000
  C   C51       1.0  0.4809660069650192  0.373680860203919  0.98181992558942  1.0000
  C   C52       1.0  0.9809692911891474  0.62631855742395  0.5181795988720452  1.0000
  N   N1        1.0  0.11867658615081209  0.5218505465907839  0.8350657905128713  1.0000
  N   N2        1.0  0.618677287473204  0.47815028989963093  0.6649347565474744  1.0000
  N   N3        1.0  0.8813209421413717  0.4781488710370922  0.16493373394858682  1.0000
  N   N4        1.0  0.3813241151715872  0.5218491277282453  0.33506539117276196  1.0000
  N   N5        1.0  0.1378597973581179  0.7564225765655621  0.8797901667928869  1.0000
  N   N6        1.0  0.637857915778774  0.2435761316310447  0.6202091579985166  1.0000
  N   N7        1.0  0.8621403138358019  0.2435761316310447  0.12020978125728733  1.0000
  N   N8        1.0  0.36214090396428117  0.7564247048593629  0.37978951928552374  1.0000
  N   N9        1.0  0.44398531133278135  0.985179398434731  0.021310975060586705  1.0000
  N   N10       1.0  0.9439860126551805  0.014820019193138  0.4786879261421078  1.0000
  N   N11       1.0  0.5560135084102669  0.014820019193138  0.9786885494008786  1.0000
  N   N12       1.0  0.05601668144048229  0.9851829455910703  0.5213113501521037  1.0000
  O   O1        1.0  0.4673282857889588  0.6451525387326882  0.1906371953758139  1.0000
  O   O2        1.0  0.9673238213078788  0.3548433317388415  0.30936133073535643  1.0000
  O   O3        1.0  0.5326731168558252  0.35484404117011087  0.8093627769229599  1.0000
  O   O4        1.0  0.0326711240825617  0.6451532481639575  0.6906380183046466  1.0000
  O   O5        1.0  0.1926663893343914  0.5906157194194536  0.16885635210853422  1.0000
  O   O6        1.0  0.6926645077550475  0.4093844076396849  0.3311433720229857  1.0000
  O   O7        1.0  0.8073311389577853  0.4093844076396849  0.8311439952817565  1.0000
  O   O8        1.0  0.3073356034388723  0.5906150099881842  0.668858022214785  1.0000
  O   O9        1.0  0.7471133678406332  0.6236667033433392  0.8178738761475373  1.0000
  O   O10       1.0  0.24711137506736944  0.3763334237157991  0.6821258479839898  1.0000
  O   O11       1.0  0.2528854519024222  0.3763341331470684  0.18212729417158613  1.0000
  O   O12       1.0  0.752892610479158  0.6236652844808077  0.31787347680742073  1.0000
  O   O13       1.0  0.844143945977059  0.6535933519619803  0.9550732385662004  1.0000
  O   O14       1.0  0.3441406617529239  0.3464074845284273  0.5449298015292285  1.0000
  O   O15       1.0  0.155852290864253  0.3464053562346194  0.0449273327427449  1.0000
  O   O16       1.0  0.6558568665392526  0.6535926425307113  0.4550711691198331  1.0000
