data_image0
_chemical_formula_structural       K4H32Pt2C12I4N4O12
_chemical_formula_sum              "K4 H32 Pt2 C12 I4 N4 O12"
_cell_length_a       5.00550707410694
_cell_length_b       6.970086137142936
_cell_length_c       24.234523555027327
_cell_angle_alpha    89.99982973174245
_cell_angle_beta     89.99997621527869
_cell_angle_gamma    94.36757660379216

_space_group_name_H-M_alt    "P 1"
_space_group_IT_number       1

loop_
  _space_group_symop_operation_xyz
  'x, y, z'

loop_
  _atom_site_type_symbol
  _atom_site_label
  _atom_site_symmetry_multiplicity
  _atom_site_fract_x
  _atom_site_fract_y
  _atom_site_fract_z
  _atom_site_occupancy
  K   K1        1.0  0.4997593253000901  0.18242421516126944  0.3010555390381171  1.0000
  K   K2        1.0  0.5002191800740903  0.3175693212830666  0.8010558198864645  1.0000
  K   K3        1.0  0.5002391884769609  0.8175687550103418  0.6989446629495646  1.0000
  K   K4        1.0  0.499770078571224  0.6824308237933324  0.19894603263644234  1.0000
  H   H1        1.0  0.4470232284449197  0.4968414590833988  0.609247146182895  1.0000
  H   H2        1.0  0.5529764313236852  0.0031598627406381995  0.109247840874275  1.0000
  H   H3        1.0  0.5529857178949129  0.5031558471785759  0.39075346843692665  1.0000
  H   H4        1.0  0.44702096732387997  0.9968417367923051  0.890752361109726  1.0000
  H   H5        1.0  0.24648380145867319  0.35012731627370647  0.6544509130269418  1.0000
  H   H6        1.0  0.7535175717918109  0.14987210135869594  0.1544514631025109  1.0000
  H   H7        1.0  0.7535211484715489  0.6498699822042936  0.3455492889585869  1.0000
  H   H8        1.0  0.24647982685575445  0.8501294981742548  0.8455487388814902  1.0000
  H   H9        1.0  0.39856217067730176  0.055705928434790115  0.5981194123941549  1.0000
  H   H10       1.0  0.601431528335553  0.444295497216615  0.0981197214059648  1.0000
  H   H11       1.0  0.6014389300232139  0.9442928011370954  0.40187996432196377  1.0000
  H   H12       1.0  0.39856587031201224  0.5557061023163284  0.9018804805780363  1.0000
  H   H13       1.0  0.518844652840052  0.22328871160470953  0.5480420142548326  1.0000
  H   H14       1.0  0.4811510495725173  0.27671179886279873  0.048042066177558206  1.0000
  H   H15       1.0  0.48115659503910996  0.7767114568407721  0.4519577750951385  1.0000
  H   H16       1.0  0.5188463490756805  0.7232898006722907  0.951957723171958  1.0000
  H   H17       1.0  0.07530215264570467  0.3381187897807861  0.544293200031639  1.0000
  H   H18       1.0  0.9246957065566477  0.16188320236317114  0.0442941371862418  1.0000
  H   H19       1.0  0.92470124061785  0.6618828214334869  0.4557065893176144  1.0000
  H   H20       1.0  0.07529969388580328  0.8381183932767159  0.9557060647978517  1.0000
  H   H21       1.0  0.9678377664664524  0.1820586233341004  0.5923527657028913  1.0000
  H   H22       1.0  0.032160093682186607  0.31794430883544333  0.09235323440941559  1.0000
  H   H23       1.0  0.0321656267970951  0.8179429878801728  0.40764702364636207  1.0000
  H   H24       1.0  0.9678393031711323  0.6820572945927028  0.9076465549400153  1.0000
  H   H25       1.0  0.9839606270852598  0.48631878758682495  0.2630575275838396  1.0000
  H   H26       1.0  0.016038270318873102  0.013678059959275402  0.7630568761756535  1.0000
  H   H27       1.0  0.016036035666573398  0.5136756175696036  0.7369422617688243  1.0000
  H   H28       1.0  0.9839589811487953  0.9863221006957943  0.2369437384434576  1.0000
  H   H29       1.0  0.9689609707590138  0.3738756281741615  0.2081817301324236  1.0000
  H   H30       1.0  0.031042237207998404  0.1261232356364204  0.7081813928152413  1.0000
  H   H31       1.0  0.031040424300677192  0.6261259791513326  0.7918172339479596  1.0000
  H   H32       1.0  0.9689587163126208  0.8738740550575983  0.2918183965359873  1.0000
  Pt  Pt1       1.0  1.3846946628875044e-06  0.9999988477989133  0.4999999266546594  1.0000
  Pt  Pt2       1.0  0.9999984603090154  0.5000021691271144  0.9999997395442506  1.0000
  C   C1        1.0  0.6617313008095352  0.3268787559597611  0.6650209494873137  1.0000
  C   C2        1.0  0.3382704818185546  0.173124868590449  0.1650202783630235  1.0000
  C   C3        1.0  0.3382802324512539  0.6731243096939253  0.33498049039886274  1.0000
  C   C4        1.0  0.6617289150347574  0.8268767348376971  0.8349795109864075  1.0000
  C   C5        1.0  0.42353590794784424  0.3518894136666901  0.6274060153987193  1.0000
  C   C6        1.0  0.5764612568249491  0.14810739915085236  0.1274065826918402  1.0000
  C   C7        1.0  0.5764648983935032  0.6481064381515932  0.3725937739531346  1.0000
  C   C8        1.0  0.4235339964375982  0.8518927576111609  0.8725940319273562  1.0000
  C   C9        1.0  0.37629196646352636  0.20087523257795678  0.5823294796559679  1.0000
  C   C10       1.0  0.623707775208203  0.2991263686453395  0.0823307374688795  1.0000
  C   C11       1.0  0.6237134250064004  0.7991263825336645  0.4176694844242305  1.0000
  C   C12       1.0  0.37629147446458694  0.700873795902794  0.9176698771501393  1.0000
  I   I1        1.0  0.04653029741494661  0.26806449224767454  0.4245797165531613  1.0000
  I   I2        1.0  0.9534706954367709  0.23193643810829911  0.9245800312663235  1.0000
  I   I3        1.0  0.9534708032855691  0.7319342373242179  0.5754196601629573  1.0000
  I   I4        1.0  0.046528701417166494  0.7680651653219926  0.0754193454486298  1.0000
  N   N1        1.0  0.10080444751650222  0.20296548695903746  0.5596700811834693  1.0000
  N   N2        1.0  0.8991933648985012  0.2970363455774532  0.05967049111701069  1.0000
  N   N3        1.0  0.8991989457470526  0.7970361242552286  0.440329708165784  1.0000
  N   N4        1.0  0.10080388657042497  0.7029638150819012  0.9403292982331449  1.0000
  O   O1        1.0  0.7172695567979234  0.4592348245118104  0.7001789979571312  1.0000
  O   O2        1.0  0.28272879603080264  0.040755481316061506  0.2001805093623972  1.0000
  O   O3        1.0  0.2827302192910324  0.5407509551849116  0.299819140861203  1.0000
  O   O4        1.0  0.717270453641987  0.9592446832320717  0.7998201052566216  1.0000
  O   O5        1.0  0.7876904591263952  0.1750566978415478  0.6600867264347768  1.0000
  O   O6        1.0  0.21230875159018586  0.3249412185192356  0.16008799839168827  1.0000
  O   O7        1.0  0.21231278695851336  0.8249434744991364  0.339912650280624  1.0000
  O   O8        1.0  0.7876886470567543  0.6750603810115691  0.8399126162267904  1.0000
  O   O9        1.0  0.8503513970999209  0.4264952782454685  0.2366200682981869  1.0000
  O   O10       1.0  0.1496500204900713  0.0735061642388999  0.736619353325068  1.0000
  O   O11       1.0  0.14964814693141187  0.5735077640541278  0.7633805463195742  1.0000
  O   O12       1.0  0.8503492291839693  0.9264940003135109  0.2633804360249883  1.0000
