data_image0
_chemical_formula_structural       Zn2H44C52N4O8
_chemical_formula_sum              "Zn2 H44 C52 N4 O8"
_cell_length_a       10.297794654284445
_cell_length_b       10.443138259710993
_cell_length_c       11.989704529983031
_cell_angle_alpha    94.8553443836179
_cell_angle_beta     95.26493888306376
_cell_angle_gamma    109.44708371800498

_space_group_name_H-M_alt    "P 1"
_space_group_IT_number       1

loop_
  _space_group_symop_operation_xyz
  'x, y, z'

loop_
  _atom_site_type_symbol
  _atom_site_label
  _atom_site_symmetry_multiplicity
  _atom_site_fract_x
  _atom_site_fract_y
  _atom_site_fract_z
  _atom_site_occupancy
  Zn  Zn1       1.0  0.9438559907323735  0.054376462309988896  0.7464080726805803  1.0000
  Zn  Zn2       1.0  0.05611672000262749  0.9456265564088608  0.25360626580294365  1.0000
  H   H1        1.0  0.7408191422683997  0.7487971274758606  0.44908573895901327  1.0000
  H   H2        1.0  0.25089217585611573  0.25751240653107027  0.0448919704110153  1.0000
  H   H3        1.0  0.25918346419850735  0.2512101223223056  0.5509435116565554  1.0000
  H   H4        1.0  0.7491106801350041  0.7425138585114368  0.9550944271483317  1.0000
  H   H5        1.0  0.6241864977100846  0.526997824614554  0.32998852643921583  1.0000
  H   H6        1.0  0.47388437159492713  0.37608067707829906  0.16639628587814306  1.0000
  H   H7        1.0  0.3758527928549568  0.47302346129421113  0.6700117612386477  1.0000
  H   H8        1.0  0.526119322789654  0.623934256488198  0.83358103246983  1.0000
  H   H9        1.0  0.5123442611440366  0.18688729263669046  0.4420456254225015  1.0000
  H   H10       1.0  0.8220641604179519  0.48671627532864636  0.05964641016733202  1.0000
  H   H11       1.0  0.48773543752485427  0.81310515493508  0.5579321208259527  1.0000
  H   H12       1.0  0.17793239247525608  0.5132781783405632  0.9403272971217829  1.0000
  H   H13       1.0  0.6430689992702412  0.2428192022041529  0.35240333330485635  1.0000
  H   H14       1.0  0.7617110253734721  0.3620902510065561  0.15269894534198866  1.0000
  H   H15       1.0  0.35697315308419764  0.7572006255878776  0.6475511767758064  1.0000
  H   H16       1.0  0.23829552012121974  0.6379021475435421  0.8472736520223376  1.0000
  H   H17       1.0  0.4841745564027633  0.2727479976031972  0.3253061079613531  1.0000
  H   H18       1.0  0.7320747614686453  0.5196844847788639  0.1721531962744933  1.0000
  H   H19       1.0  0.515847826274353  0.7272415492936728  0.6746890897686697  1.0000
  H   H20       1.0  0.2679252822809132  0.48030590322642297  0.8278229729290912  1.0000
  H   H21       1.0  0.6323026863379012  0.31414769870190895  0.6210726168018397  1.0000
  H   H22       1.0  0.6956080281602154  0.37057961977136955  0.8797592241386665  1.0000
  H   H23       1.0  0.3677283476886543  0.6858253038417883  0.37890284110491007  1.0000
  H   H24       1.0  0.30437896723468316  0.6293984839590933  0.12021516322254659  1.0000
  H   H25       1.0  0.7488498302294815  0.5387626846799022  0.7413861577482307  1.0000
  H   H26       1.0  0.469402359292225  0.2518825970859239  0.7569721752551641  1.0000
  H   H27       1.0  0.251149045824313  0.4611982750805268  0.258612882854976  1.0000
  H   H28       1.0  0.5305754725612458  0.7481251822635498  0.24300532311134754  1.0000
  H   H29       1.0  0.6439612248549408  0.0054355914136579  0.6989035360951377  1.0000
  H   H30       1.0  0.9940755126393623  0.3474263243311597  0.7973213193102636  1.0000
  H   H31       1.0  0.3560520053690865  0.9945236101817726  0.30112558451106247  1.0000
  H   H32       1.0  0.0058872030106514135  0.6525735234455324  0.20268208372262106  1.0000
  H   H33       1.0  0.4391305160582703  0.970437202912407  0.8004557101738495  1.0000
  H   H34       1.0  0.0300741116051526  0.5533184480273475  0.6997886199713361  1.0000
  H   H35       1.0  0.5608737975538033  0.0295729023490736  0.19955134025900625  1.0000
  H   H36       1.0  0.9699320903813556  0.4466803741424882  0.30021443319718333  1.0000
  H   H37       1.0  0.7206233109273582  0.0668067738404545  0.11220688127819758  1.0000
  H   H38       1.0  0.9324916967672221  0.2856336972468511  0.38392231711752334  1.0000
  H   H39       1.0  0.2793474393113796  0.9332127063005372  0.8878184865498537  1.0000
  H   H40       1.0  0.06752906881055756  0.7143733263163979  0.6160831714058401  1.0000
  H   H41       1.0  0.9132034995226161  0.10050678922257819  0.9967069759717828  1.0000
  H   H42       1.0  0.8975058674835591  0.09136108264091548  0.4954472410387253  1.0000
  H   H43       1.0  0.08678895807648951  0.8995353536471239  0.0033365268235101978  1.0000
  H   H44       1.0  0.10245490984936366  0.9086387717836572  0.5045568602397948  1.0000
  C   C1        1.0  0.8345647156810612  0.78848124888394  0.6758980005154455  1.0000
  C   C2        1.0  0.2149281684770017  0.1634665191152891  0.8190923377066566  1.0000
  C   C3        1.0  0.16540672788440955  0.21149227794904848  0.32413252497405404  1.0000
  C   C4        1.0  0.7850535300599332  0.8365464650445629  0.18089497399481755  1.0000
  C   C5        1.0  0.7545971624070942  0.6570607433800503  0.6030142166495338  1.0000
  C   C6        1.0  0.3469138851939917  0.2449099381780471  0.8930430518897123  1.0000
  C   C7        1.0  0.24540528708165965  0.34292692701354344  0.3969986316804111  1.0000
  C   C8        1.0  0.6530732600288544  0.755101994883688  0.106941232527646  1.0000
  C   C9        1.0  0.7170288528111824  0.6535228035345638  0.4869610036288846  1.0000
  C   C10       1.0  0.34830490404335973  0.28234694179518266  0.008533444810787202  1.0000
  C   C11       1.0  0.28298353466969667  0.3464710112841161  0.5130529759035056  1.0000
  C   C12       1.0  0.6516892033077678  0.7176711019102696  0.9914484226568233  1.0000
  C   C13       1.0  0.6529353214029996  0.5284046713907172  0.42009457033799436  1.0000
  C   C14       1.0  0.4741627426339362  0.34757484944697836  0.07677536258459129  1.0000
  C   C15       1.0  0.34709958955802717  0.47159824596770505  0.5799091219742748  1.0000
  C   C16       1.0  0.5258381872685334  0.6524401855752727  0.9232126119476971  1.0000
  C   C17       1.0  0.6240092323424022  0.404389100837001  0.46645635024468374  1.0000
  C   C18       1.0  0.6009945062196422  0.3776831071384875  0.0323430301550189  1.0000
  C   C19       1.0  0.3760344844627212  0.5956116255115659  0.5335319591545086  1.0000
  C   C20       1.0  0.39900962326811396  0.6223134213701512  0.9676338583402779  1.0000
  C   C21       1.0  0.5621182451721723  0.269688396489137  0.3928508257191296  1.0000
  C   C22       1.0  0.7363387516398985  0.4403812016096039  0.10791984200723448  1.0000
  C   C23       1.0  0.4379285246968649  0.730310198568837  0.6071283732499068  1.0000
  C   C24       1.0  0.26365831624581654  0.5596091526143212  0.8920527790441567  1.0000
  C   C25       1.0  0.6566583526534232  0.4095376384917485  0.5832077165081769  1.0000
  C   C26       1.0  0.5979639670011138  0.34533258088093516  0.9160624542843718  1.0000
  C   C27       1.0  0.3433726714224079  0.590440582158095  0.4167789512247849  1.0000
  C   C28       1.0  0.4020265618368127  0.6546557389327956  0.08391123195865897  1.0000
  C   C29       1.0  0.7213356097027271  0.5340263488125174  0.6507499052902972  1.0000
  C   C30       1.0  0.47269178695339054  0.2795384753438909  0.847191314342993  1.0000
  C   C31       1.0  0.27867535176429936  0.46594690252423737  0.3492516840526959  1.0000
  C   C32       1.0  0.5272927504652002  0.7204632104676917  0.15279039764751448  1.0000
  C   C33       1.0  0.6553482750778058  0.018496332075862695  0.7909369493473689  1.0000
  C   C34       1.0  0.9807661083042942  0.33933993536751217  0.7053908055485393  1.0000
  C   C35       1.0  0.34465382614154544  0.9814985544382039  0.209082220857816  1.0000
  C   C36       1.0  0.019216876258020908  0.6606620037008284  0.2946175067129885  1.0000
  C   C37       1.0  0.541121327927975  0.9974377338648708  0.848899747352462  1.0000
  C   C38       1.0  0.002327788274712378  0.45409069616741243  0.6496956279930683  1.0000
  C   C39       1.0  0.4588681060478379  0.0025683967304885994  0.1511193227505672  1.0000
  C   C40       1.0  0.9976813474005153  0.5459163672831195  0.35031405000407284  1.0000
  C   C41       1.0  0.5596734387958263  0.012664932137091996  0.9674218127031222  1.0000
  C   C42       1.0  0.9869894208986236  0.43981754049666927  0.5312490116700559  1.0000
  C   C43       1.0  0.4403203199688761  0.9873565219295485  0.032596137070839935  1.0000
  C   C44       1.0  0.013030608148426359  0.5601874207576215  0.4687546117588467  1.0000
  C   C45       1.0  0.696689005666464  0.05278713619626529  0.02081746839209591  1.0000
  C   C46       1.0  0.946252423987836  0.3062149500364058  0.47548724160372297  1.0000
  C   C47       1.0  0.303303680732327  0.9472394796370194  0.979205773711854  1.0000
  C   C48       1.0  0.05376002338641675  0.6937849231198924  0.524518827121163  1.0000
  C   C49       1.0  0.8061701965569198  0.07203047719036697  0.957000576203782  1.0000
  C   C50       1.0  0.9263641327316061  0.19575450350633616  0.5370692671360473  1.0000
  C   C51       1.0  0.1938222459186959  0.9279951870396913  0.04303008884500059  1.0000
  C   C52       1.0  0.07362316397960454  0.8042515064549035  0.462937132425317  1.0000
  N   N1        1.0  0.7857810331662094  0.05406662897685519  0.8434640304299348  1.0000
  N   N2        1.0  0.9444912354957185  0.21213994309557896  0.6506042676598582  1.0000
  N   N3        1.0  0.2142188687119598  0.9459467806146973  0.156567965562445  1.0000
  N   N4        1.0  0.05547590908364699  0.787855815805436  0.3493991592916714  1.0000
  O   O1        1.0  0.8518424000518934  0.8999038066686891  0.6283974958648527  1.0000
  O   O2        1.0  0.10082657537560638  0.14657720229501336  0.8643722916488625  1.0000
  O   O3        1.0  0.14810783921756607  0.10008412276891929  0.3716425605891516  1.0000
  O   O4        1.0  0.8991620078837741  0.8534328129572587  0.1356253048633178  1.0000
  O   O5        1.0  0.8832611350381612  0.7891129898135246  0.7759665021423031  1.0000
  O   O6        1.0  0.21658537200578112  0.1134939134796795  0.7204513423932113  1.0000
  O   O7        1.0  0.11670684233362746  0.21085337397037307  0.22406327570924833  1.0000
  O   O8        1.0  0.7833918976018024  0.8865231595558498  0.27953594538962523  1.0000
