data_image0
_chemical_formula_structural       Tb2Cu2H32C44S4N4O22
_chemical_formula_sum              "Tb2 Cu2 H32 C44 S4 N4 O22"
_cell_length_a       9.422666838448063
_cell_length_b       11.319677738804028
_cell_length_c       12.3599
_cell_angle_alpha    99.35332965224482
_cell_angle_beta     100.2903422881939
_cell_angle_gamma    113.92327031011398

_space_group_name_H-M_alt    "P 1"
_space_group_IT_number       1

loop_
  _space_group_symop_operation_xyz
  'x, y, z'

loop_
  _atom_site_type_symbol
  _atom_site_label
  _atom_site_symmetry_multiplicity
  _atom_site_fract_x
  _atom_site_fract_y
  _atom_site_fract_z
  _atom_site_occupancy
  Tb  Tb1       1.0  0.3057955028712059  0.4637369692144588  0.09577111241654278  1.0000
  Tb  Tb2       1.0  0.6942040479925567  0.5362620134505107  0.9042287559002489  1.0000
  Cu  Cu1       1.0  0.25664460287926966  0.9756073716418924  0.5954560338804242  1.0000
  Cu  Cu2       1.0  0.7433560266045944  0.0243916110230771  0.4045439813280752  1.0000
  H   H1        1.0  0.7386328878471174  0.5472763847199005  0.4155967394083291  1.0000
  H   H2        1.0  0.2613672029093834  0.4527235991605281  0.5844033514588317  1.0000
  H   H3        1.0  0.903152974885863  0.6738540479651789  0.2999056931780686  1.0000
  H   H4        1.0  0.09684603725052911  0.3261459359152497  0.7000934417293437  1.0000
  H   H5        1.0  0.28734893852364246  0.5804927088025522  0.4359507016662079  1.0000
  H   H6        1.0  0.7126527707456987  0.4195082762933353  0.5640489495749891  1.0000
  H   H7        1.0  0.4501267508726556  0.2515503781090658  0.23157586482134457  1.0000
  H   H8        1.0  0.5498733398838453  0.7484496057713699  0.7684242260458092  1.0000
  H   H9        1.0  0.5005859598480598  0.1083995953635366  0.3538438451258727  1.0000
  H   H10       1.0  0.49941520952854296  0.8916003885168919  0.6461572017010226  1.0000
  H   H11       1.0  0.9382570676435762  0.187111149923517  0.2803753885339759  1.0000
  H   H12       1.0  0.06174356300566335  0.8128898351723706  0.7196249248835542  1.0000
  H   H13       1.0  0.9057976835421966  0.3327199166219899  0.1595362075159059  1.0000
  H   H14       1.0  0.09420132859419544  0.6672800672584458  0.840465354595608  1.0000
  H   H15       1.0  0.5746713739035556  0.1776476614008118  0.8636536763279709  1.0000
  H   H16       1.0  0.42532817696020686  0.8223513212641577  0.13634619198881376  1.0000
  H   H17       1.0  0.7642181312808846  0.0808741799523887  0.908999253893029  1.0000
  H   H18       1.0  0.23578249936836224  0.9191268051435059  0.09100025045646017  1.0000
  H   H19       1.0  0.15855258180009463  0.0709090824844978  0.9955033665209854  1.0000
  H   H20       1.0  0.8414464303362976  0.9290909013959306  0.004496577454467829  1.0000
  H   H21       1.0  0.4121952097261783  0.2566856122005703  0.6265037966187421  1.0000
  H   H22       1.0  0.5878048810303227  0.7433143716798583  0.3734971033164527  1.0000
  H   H23       1.0  0.4348475155453073  0.4080864103319541  0.4996484912925325  1.0000
  H   H24       1.0  0.5651498780782376  0.5919125723330225  0.5003510832408509  1.0000
  H   H25       1.0  0.0860062737839726  0.0645293375768929  0.2272423764405787  1.0000
  H   H26       1.0  0.9139927371870442  0.9354686438726175  0.7727580783938848  1.0000
  H   H27       1.0  0.0802393740807688  0.9243881923829066  0.36281510039726333  1.0000
  H   H28       1.0  0.9197612554030954  0.0756107902820702  0.637184914811229  1.0000
  H   H29       1.0  0.9744001991069949  0.3171720417522153  0.9287107522516038  1.0000
  H   H30       1.0  0.025599351756760275  0.6828269409127543  0.07128911606518779  1.0000
  H   H31       1.0  0.942138641683826  0.40700810128212345  0.0235899782286921  1.0000
  H   H32       1.0  0.05786144907267504  0.5929918825983052  0.9764101126384617  1.0000
  C   C1        1.0  0.8598938344759545  0.5570882962224957  0.42251679200149533  1.0000
  C   C2        1.0  0.14010571638780786  0.44291068644248094  0.5774830763152963  1.0000
  C   C3        1.0  0.9499375588364531  0.626552624799011  0.35722806907342175  1.0000
  C   C4        1.0  0.05006253192004809  0.3734473590814247  0.6427720217937392  1.0000
  C   C5        1.0  0.10483784961949283  0.6343460859353556  0.3631949136116077  1.0000
  C   C6        1.0  0.8951638596498555  0.3656548991605391  0.636804737629589  1.0000
  C   C7        1.0  0.16899765949688123  0.5754686096270447  0.4342876318193092  1.0000
  C   C8        1.0  0.8310024312596198  0.4245313742533909  0.5657124590478518  1.0000
  C   C9        1.0  0.9208213777958392  0.4951190665754055  0.4969049616378314  1.0000
  C   C10       1.0  0.07918141009361084  0.504881918520482  0.503095645563107  1.0000
  C   C11       1.0  0.5609411590142273  0.24172545080549668  0.2434280099252888  1.0000
  C   C12       1.0  0.4390567745020634  0.7582745330749319  0.7565717871584567  1.0000
  C   C13       1.0  0.5876417535077252  0.1618474802352594  0.3103955230857379  1.0000
  C   C14       1.0  0.4123594158688774  0.8381525036451691  0.6896055237411646  1.0000
  C   C15       1.0  0.8329633769164673  0.2058599106171428  0.2694140126904614  1.0000
  C   C16       1.0  0.167038332352874  0.7941410744787447  0.7305864476187693  1.0000
  C   C17       1.0  0.8136275590626453  0.2875200447051967  0.2018215160408019  1.0000
  C   C18       1.0  0.18637361147933976  0.7124819416061499  0.7981806380631583  1.0000
  C   C19       1.0  0.501680313062657  0.1206064142451311  0.9131589636909326  1.0000
  C   C20       1.0  0.49831816034637194  0.8793945708507636  0.08684186501121616  1.0000
  C   C21       1.0  0.5492769065817882  0.0368357179685574  0.9675488140753004  1.0000
  C   C22       1.0  0.45072210555460407  0.9631642659118711  0.03245193896818682  1.0000
  C   C23       1.0  0.6913612412000703  0.0245578127893467  0.9592876707396485  1.0000
  C   C24       1.0  0.308637770936329  0.975442171091089  0.04071308230383855  1.0000
  C   C25       1.0  0.2650788906513171  0.0582266862596725  0.987351729455888  1.0000
  C   C26       1.0  0.7349217399979225  0.9417742988362221  0.01264615675753329  1.0000
  C   C27       1.0  0.3635122750465669  0.1307337086174485  0.9238259155804229  1.0000
  C   C28       1.0  0.6364878157099341  0.8692662752629801  0.07617417528673794  1.0000
  C   C29       1.0  0.3425080863405938  0.2183911233075975  0.5377417599032484  1.0000
  C   C30       1.0  0.6574898471756967  0.7816088605728311  0.46225803718049724  1.0000
  C   C31       1.0  0.3534205991021011  0.3019866068787636  0.4660218342480178  1.0000
  C   C32       1.0  0.6465767945214509  0.698012375786206  0.5339769312173245  1.0000
  C   C33       1.0  0.2608820908831575  0.2483865372572041  0.3526308089314156  1.0000
  C   C34       1.0  0.7391158414677577  0.7516114441923065  0.647368689943299  1.0000
  C   C35       1.0  0.1597643644134408  0.11067535810286698  0.314962887011859  1.0000
  C   C36       1.0  0.8402351864503146  0.8893236245621097  0.6850361722368987  1.0000
  C   C37       1.0  0.1560263656659799  0.0318376503949906  0.3904950801331708  1.0000
  C   C38       1.0  0.8439731851977755  0.9681613322699789  0.6095047881836209  1.0000
  C   C39       1.0  0.6741489446074027  0.3058963532479098  0.1872091136053413  1.0000
  C   C40       1.0  0.3258516860418439  0.6941046318479778  0.8127911998121816  1.0000
  C   C41       1.0  0.640947426011408  0.3865622803847373  0.10955438183613353  1.0000
  C   C42       1.0  0.3590510462322456  0.6134367022802394  0.8904453395889503  1.0000
  C   C43       1.0  0.2741268220644244  0.3342507750594876  0.27081610010657187  1.0000
  C   C44       1.0  0.7258716501792293  0.665748207605489  0.7291836213185122  1.0000
  S   S1        1.0  0.3061574219816734  0.2339930638121785  0.8513103425638492  1.0000
  S   S2        1.0  0.6938415901547188  0.76600692006825  0.14868879234357016  1.0000
  S   S3        1.0  0.21660688420988813  0.7154175053332494  0.2723746152377515  1.0000
  S   S4        1.0  0.7833948250594602  0.2845834797626381  0.7276266541395131  1.0000
  N   N1        1.0  0.24670274089848476  0.0846908132838067  0.5000132194001168  1.0000
  N   N2        1.0  0.7532973498580162  0.915309170596629  0.4999860623990031  1.0000
  N   N3        1.0  0.7218406242623986  0.1427192588825008  0.3226713109640045  1.0000
  N   N4        1.0  0.27816162373431313  0.8572807249979278  0.6773298827546056  1.0000
  O   O1        1.0  0.18150498338195584  0.2783218782792503  0.1691472887445116  1.0000
  O   O2        1.0  0.8184940287544364  0.7216781056011854  0.8308518461629006  1.0000
  O   O3        1.0  0.37885742410140466  0.45627290796427644  0.3012839771850508  1.0000
  O   O4        1.0  0.6211421267623579  0.5437260747007002  0.6987158911317408  1.0000
  O   O5        1.0  0.2207198986199757  0.6036948758598086  0.1923502648721467  1.0000
  O   O6        1.0  0.7792818106493725  0.396306109236086  0.8076510045051178  1.0000
  O   O7        1.0  0.235490660488864  0.297201798198067  0.9254829997079526  1.0000
  O   O8        1.0  0.7645078117547967  0.7027971844669096  0.07451672171713142  1.0000
  O   O9        1.0  0.12211530889025109  0.7717048372479738  0.21025604273365417  1.0000
  O   O10       1.0  0.8778864003790972  0.22829614784792077  0.7897444175755767  1.0000
  O   O11       1.0  0.37548343277300944  0.8147811311752733  0.34327124014377836  1.0000
  O   O12       1.0  0.6245166579834913  0.1852188527051624  0.6567280416553416  1.0000
  O   O13       1.0  0.5179849321288685  0.4072894428262329  0.10734542215224957  1.0000
  O   O14       1.0  0.48201623724774123  0.5927105410542026  0.892654006538578  1.0000
  O   O15       1.0  0.4561506036906877  0.3326848740809112  0.8347225462703989  1.0000
  O   O16       1.0  0.5438494870658134  0.6673151097995245  0.165276735528721  1.0000
  O   O17       1.0  0.18966106809811117  0.1469033382875367  0.7436040308387178  1.0000
  O   O18       1.0  0.8103374053109249  0.8530976468083508  0.2563943706593292  1.0000
  O   O19       1.0  0.7366057722280529  0.427067453012171  0.0481584530538015  1.0000
  O   O20       1.0  0.2633948572558111  0.5729315296527986  0.9518407530866568  1.0000
  O   O21       1.0  0.017524814722918322  0.3705588524809116  0.009858933512411709  1.0000
  O   O22       1.0  0.982475815926321  0.629442132614976  0.9901413799051187  1.0000
