data_image0
_chemical_formula_structural       Cd2H44C52N6O12
_chemical_formula_sum              "Cd2 H44 C52 N6 O12"
_cell_length_a       9.083176271490311
_cell_length_b       11.188462501625303
_cell_length_c       15.264
_cell_angle_alpha    102.26582651078355
_cell_angle_beta     92.19141976983708
_cell_angle_gamma    108.69349103361688

_space_group_name_H-M_alt    "P 1"
_space_group_IT_number       1

loop_
  _space_group_symop_operation_xyz
  'x, y, z'

loop_
  _atom_site_type_symbol
  _atom_site_label
  _atom_site_symmetry_multiplicity
  _atom_site_fract_x
  _atom_site_fract_y
  _atom_site_fract_z
  _atom_site_occupancy
  Cd  Cd1       1.0  0.5475166534778566  0.1614964051898227  0.5807643142312172  1.0000
  Cd  Cd2       1.0  0.45248471149349706  0.838504022093538  0.41923552131147096  1.0000
  H   H1        1.0  0.9647681109865468  0.14926846638770289  0.4531245146607787  1.0000
  H   H2        1.0  0.03523065673633849  0.8507309895763484  0.5468757656620581  1.0000
  H   H3        1.0  0.17438124379393827  0.0112886730286945  0.4430764896448594  1.0000
  H   H4        1.0  0.8256167364009028  0.9887088402967379  0.5569228151076473  1.0000
  H   H5        1.0  0.3791582401981373  0.5790452078253239  0.5816980615763541  1.0000
  H   H6        1.0  0.6208405275247557  0.42095424813873444  0.41830090847394524  1.0000
  H   H7        1.0  0.6052445866749492  0.7464355785923331  0.6778213428055722  1.0000
  H   H8        1.0  0.3947556765541903  0.2535648486910276  0.3221784676675696  1.0000
  H   H9        1.0  0.8011294032329983  0.6793280987369243  0.7606602820413002  1.0000
  H   H10       1.0  0.19886975825391315  0.3206723285464363  0.23933950336230225  1.0000
  H   H11       1.0  0.759329214302248  0.4411081525159872  0.7359755356688281  1.0000
  H   H12       1.0  0.24067215066910555  0.5588922747673806  0.26402429987386  1.0000
  H   H13       1.0  0.07558293878302179  0.24556603416759507  0.689432842003207  1.0000
  H   H14       1.0  0.924416930682085  0.7544334217964561  0.3105681185254454  1.0000
  H   H15       1.0  0.3090146690625275  0.3519653227785398  0.8030232185848902  1.0000
  H   H16       1.0  0.6909852004025865  0.6480341331855115  0.19697708680749318  1.0000
  H   H17       1.0  0.007159921237132506  0.3617533074722417  0.014466108341167678  1.0000
  H   H18       1.0  0.9928403419920002  0.638247119811126  0.98553435726825  1.0000
  H   H19       1.0  0.7724323266392331  0.2550635943874013  0.8972189961255167  1.0000
  H   H20       1.0  0.22756463136323649  0.7449368328959594  0.10278204941153034  1.0000
  H   H21       1.0  0.4567870205938149  0.5297157853132433  0.9103726013908827  1.0000
  H   H22       1.0  0.5432124551072732  0.4702826993314986  0.08962754378446648  1.0000
  H   H23       1.0  0.47458551212267946  0.3790826152940383  0.9227057068807056  1.0000
  H   H24       1.0  0.5254147511064531  0.6209178119893224  0.07729410359244328  1.0000
  H   H25       1.0  0.2520048788827935  0.6713088865079726  0.6956579570260004  1.0000
  H   H26       1.0  0.7479964860885672  0.3286915407753952  0.304341878516695  1.0000
  H   H27       1.0  0.12810444903855966  0.6938833186074334  0.8390427168777278  1.0000
  H   H28       1.0  0.8718969159327938  0.3061171086759344  0.1609571186649603  1.0000
  H   H29       1.0  0.1322882834908299  0.0740116175157084  0.8176984865152334  1.0000
  H   H30       1.0  0.8677119797383028  0.9259888097676594  0.18230132395791537  1.0000
  H   H31       1.0  0.25973619193417363  0.05125749134376889  0.6785521306516528  1.0000
  H   H32       1.0  0.740264071294959  0.9487429359395917  0.32144767982149597  1.0000
  H   H33       1.0  0.9461345776936908  0.0284198317111191  0.9119626641828235  1.0000
  H   H34       1.0  0.0538652917714231  0.9715796242529392  0.08803829634582877  1.0000
  H   H35       1.0  0.1420042750854122  0.0902656748605892  0.9668631794999811  1.0000
  H   H36       1.0  0.8579918953890057  0.9097328097841597  0.03313689046673565  1.0000
  H   H37       1.0  0.9862340397682272  0.3795867300162783  0.4253207537068561  1.0000
  H   H38       1.0  0.013766223460905284  0.6204136972670824  0.5746784016300239  1.0000
  H   H39       1.0  0.1596324666948092  0.5161561677361846  0.46477907387557593  1.0000
  H   H40       1.0  0.8403688982765516  0.4838442595471832  0.5352207616671123  1.0000
  H   H41       1.0  0.9738045569284421  0.3432652157127976  0.5831776773848106  1.0000
  H   H42       1.0  0.026196808042911388  0.6567352115705631  0.4168221581578777  1.0000
  H   H43       1.0  0.1557974788557246  0.4708412079351376  0.6179385392323126  1.0000
  H   H44       1.0  0.844202784373408  0.5291592193482231  0.38206127124083616  1.0000
  C   C1        1.0  0.0861617693721328  0.1783672502969864  0.4803530022527411  1.0000
  C   C2        1.0  0.9138377063289553  0.8216312343477625  0.5196471429226079  1.0000
  C   C3        1.0  0.1898586474111994  0.11108396164634368  0.4768943147599742  1.0000
  C   C4        1.0  0.8101393327836418  0.8889135516790887  0.5231076105376005  1.0000
  C   C5        1.0  0.31274267317947135  0.3082744088649463  0.5577580969381444  1.0000
  C   C6        1.0  0.6872571962856353  0.691725047099105  0.44224155331797016  1.0000
  C   C7        1.0  0.44259475860980035  0.41796646993908837  0.611896239403741  1.0000
  C   C8        1.0  0.5574062125975343  0.5820329860249628  0.38810278078564403  1.0000
  C   C9        1.0  0.4601431134091669  0.548878943993607  0.6190050536684097  1.0000
  C   C10       1.0  0.5398578577981681  0.4511205119704513  0.3809946216572442  1.0000
  C   C11       1.0  0.5897909705940876  0.6442964964780273  0.672733677144393  1.0000
  C   C12       1.0  0.41020889887101936  0.3557029594860309  0.3272653179754528  1.0000
  C   C13       1.0  0.6987830223713445  0.6077729477579226  0.7177304321220319  1.0000
  C   C14       1.0  0.3012172408577882  0.3922274795254381  0.282269378351117  1.0000
  C   C15       1.0  0.6757992472941154  0.47533453106633056  0.7043025036294354  1.0000
  C   C16       1.0  0.32420140969903594  0.5246668675363394  0.29569746706074795  1.0000
  C   C17       1.0  0.7725067057849414  0.19548966710561186  0.7158452325198327  1.0000
  C   C18       1.0  0.22749465918641923  0.8045107601777558  0.2841552581591245  1.0000
  C   C19       1.0  0.9101782551008668  0.24558837451174037  0.7861013486720907  1.0000
  C   C20       1.0  0.08982161436424008  0.7544110814523108  0.21389961185655434  1.0000
  C   C21       1.0  0.06156110870155369  0.2722977129167603  0.7606828463580159  1.0000
  C   C22       1.0  0.938436951043137  0.7277027143666075  0.239318224248585  1.0000
  C   C23       1.0  0.1925548211094323  0.3322640532000634  0.8246487119437589  1.0000
  C   C24       1.0  0.8074435528494275  0.6677344314446784  0.17535140816204375  1.0000
  C   C25       1.0  0.17108676860890878  0.3656444126308145  0.9159994375757422  1.0000
  C   C26       1.0  0.828911999113984  0.6343550433332368  0.08400149788337068  1.0000
  C   C27       1.0  0.019904960072771906  0.3362639461214343  0.9428826056245398  1.0000
  C   C28       1.0  0.9800953031563605  0.6637364811619264  0.05711851512113948  1.0000
  C   C29       1.0  0.8908956880817556  0.276896909852816  0.87812256856688  1.0000
  C   C30       1.0  0.10910197789890923  0.7231025461112353  0.12187834182267916  1.0000
  C   C31       1.0  0.4458951318662727  0.4647782327978902  0.9568265381661477  1.0000
  C   C32       1.0  0.554105131362867  0.5352221944854776  0.043173927443270047  1.0000
  C   C33       1.0  0.3314611190427925  0.8429244962764386  0.5903134105233647  1.0000
  C   C34       1.0  0.6685406396925869  0.1570769023262386  0.4096865852363578  1.0000
  C   C35       1.0  0.2639864456126871  0.859688496259423  0.6776386082076656  1.0000
  C   C36       1.0  0.7360149193586664  0.1403119310239447  0.32236188247129866  1.0000
  C   C37       1.0  0.2254739702566866  0.7590782707401189  0.7233092718697876  1.0000
  C   C38       1.0  0.7745251912302252  0.2409221565432489  0.2766905135338149  1.0000
  C   C39       1.0  0.15641134139334406  0.7709060259862355  0.8026690082598549  1.0000
  C   C40       1.0  0.8435882138575863  0.2290953726164346  0.19733093736078192  1.0000
  C   C41       1.0  0.12273227262772925  0.8847980717597466  0.8373073413328312  1.0000
  C   C42       1.0  0.8772690923436314  0.11520235552361409  0.1626924942098569  1.0000
  C   C43       1.0  0.1593935787238863  0.9859240678330251  0.7924682428892281  1.0000
  C   C44       1.0  0.8406118790021893  0.0140783020889614  0.2075326434324225  1.0000
  C   C45       1.0  0.2310050616975586  0.9729317007333974  0.713671729775136  1.0000
  C   C46       1.0  0.7689963032737948  0.0270687265499632  0.2863281057675522  1.0000
  C   C47       1.0  0.030683016660212597  0.0084835028594554  0.9555510948638856  1.0000
  C   C48       1.0  0.9693153572986475  0.9915149817852864  0.04444968037819303  1.0000
  C   C49       1.0  0.04954184370225789  0.4574311735319228  0.4845062623442614  1.0000
  C   C50       1.0  0.9504595212691028  0.542569253751445  0.5154935731984267  1.0000
  C   C51       1.0  0.08352244243713607  0.396596473784868  0.5598109339830728  1.0000
  C   C52       1.0  0.9164774270279779  0.6034029821791833  0.44018871627304185  1.0000
  N   N1        1.0  0.32854688804856375  0.1923979577397219  0.525557183816133  1.0000
  N   N2        1.0  0.6714514859103032  0.8076005269050199  0.4744422811534008  1.0000
  N   N3        1.0  0.163852028588181  0.3022978811463517  0.5314891455806291  1.0000
  N   N4        1.0  0.8361478408769257  0.6977015748177067  0.4685105046754856  1.0000
  N   N5        1.0  0.552362505432562  0.3830193724602182  0.6526612453117552  1.0000
  N   N6        1.0  0.44763775779657067  0.6169810548231495  0.34733791002512504  1.0000
  O   O1        1.0  0.6356070176100985  0.1752386307972884  0.739097689866455  1.0000
  O   O2        1.0  0.36439285185501546  0.8247608251667627  0.2609026155259285  1.0000
  O   O3        1.0  0.8001074609973884  0.1825584931225563  0.6326939940194621  1.0000
  O   O4        1.0  0.19989351020994658  0.8174409628414949  0.3673069915787365  1.0000
  O   O5        1.0  0.2917521338761233  0.4272697662967602  0.9834523399097678  1.0000
  O   O6        1.0  0.7082481293530165  0.5727306609866076  0.016547470563381163  1.0000
  O   O7        1.0  0.3914901508317569  0.943813490437904  0.5585955664967058  1.0000
  O   O8        1.0  0.6085112141396039  0.05618693684546369  0.4414049241822511  1.0000
  O   O9        1.0  0.05377493337974217  0.8890883891550132  0.915312279915085  1.0000
  O   O10       1.0  0.9462238343431508  0.1109110668090381  0.08468800040775189  1.0000
  O   O11       1.0  0.3232153175767607  0.730784710539389  0.5472102937693393  1.0000
  O   O12       1.0  0.6767853394163976  0.2692166880632882  0.45279033205711267  1.0000
