data_image0
_chemical_formula_structural       Cd4H56C48S8N16O4
_chemical_formula_sum              "Cd4 H56 C48 S8 N16 O4"
_cell_length_a       9.706617907
_cell_length_b       10.55187358967299
_cell_length_c       16.202
_cell_angle_alpha    90.0
_cell_angle_beta     90.0
_cell_angle_gamma    105.2842644512746

_space_group_name_H-M_alt    "P 1"
_space_group_IT_number       1

loop_
  _space_group_symop_operation_xyz
  'x, y, z'

loop_
  _atom_site_type_symbol
  _atom_site_label
  _atom_site_symmetry_multiplicity
  _atom_site_fract_x
  _atom_site_fract_y
  _atom_site_fract_z
  _atom_site_occupancy
  Cd  Cd1       1.0  0.7381460668898256  0.45147037994598793  0.5862726823848874  1.0000
  Cd  Cd2       1.0  0.2618498417559323  0.0485290181570335  0.0862708307616344  1.0000
  Cd  Cd3       1.0  0.26185227919246046  0.5485303811567377  0.4137297864461189  1.0000
  Cd  Cd4       1.0  0.7381479412592283  0.9514697780490166  0.9137260831996059  1.0000
  H   H1        1.0  0.5851548004029183  0.1783438469926111  0.6585032712010843  1.0000
  H   H2        1.0  0.41484597783404803  0.3216545686620762  0.1585032712010843  1.0000
  H   H3        1.0  0.4148468219784931  0.8216539667651048  0.341497346006669  1.0000
  H   H4        1.0  0.585152553872497  0.6783432450956326  0.8414954943834089  1.0000
  H   H5        1.0  0.3985378922082887  0.730804021505655  0.7624120478953245  1.0000
  H   H6        1.0  0.6014621426191411  0.7691990850451162  0.2624101962720643  1.0000
  H   H7        1.0  0.6014633589246046  0.2691996869420876  0.23759042093568886  1.0000
  H   H8        1.0  0.3985385454466197  0.2308026585059508  0.7375873348969293  1.0000
  H   H9        1.0  0.2639534903786114  0.7462775828461119  0.6921904703123047  1.0000
  H   H10       1.0  0.7360473890495174  0.7537284710496763  0.1921898531045585  1.0000
  H   H11       1.0  0.7360480422878481  0.2537271080499721  0.3078107641031949  1.0000
  H   H12       1.0  0.2639538620833761  0.24627523739807336  0.8078089124799417  1.0000
  H   H13       1.0  0.36970219533151993  0.9313256573045834  0.8398173065053669  1.0000
  H   H14       1.0  0.6302963421131267  0.5686794141428635  0.3398166892976207  1.0000
  H   H15       1.0  0.6302972768850238  0.0686790335915006  0.1601833107023793  1.0000
  H   H16       1.0  0.36970416032837505  0.4313252767532205  0.6601820762868797  1.0000
  H   H17       1.0  0.22670381724989838  0.9384041975876299  0.7721873842735434  1.0000
  H   H18       1.0  0.7732936899697903  0.5616008738598168  0.2721867670657971  1.0000
  H   H19       1.0  0.7732964036580369  0.061599510860112595  0.2278144673497096  1.0000
  H   H20       1.0  0.2267057822467535  0.4384038170362672  0.7278138501419562  1.0000
  H   H21       1.0  0.210936812690143  0.8018497731459959  0.8385310455499351  1.0000
  H   H22       1.0  0.789063503670853  0.6981543158531167  0.3385304283421817  1.0000
  H   H23       1.0  0.7890647199763164  0.1981549177500952  0.1614701888655716  1.0000
  H   H24       1.0  0.2109364357035162  0.3018484101462917  0.6614677200345653  1.0000
  H   H25       1.0  0.8539018976745181  0.9116609713496189  0.6656918898901338  1.0000
  H   H26       1.0  0.14609747817647897  0.5883362405111114  0.1656912726823876  1.0000
  H   H27       1.0  0.14609944317332693  0.0883358599597486  0.3343068756943595  1.0000
  H   H28       1.0  0.8539033955135479  0.41166255569493876  0.8343074929021128  1.0000
  H   H29       1.0  0.042060144309481  0.084791186352362  0.5919201333168758  1.0000
  H   H30       1.0  0.9579398852360937  0.4152082117506666  0.0919188989013691  1.0000
  H   H31       1.0  0.957941010914105  0.9152085923020293  0.4080811010986309  1.0000
  H   H32       1.0  0.042060706920359785  0.5847896020070493  0.9080829527218839  1.0000
  H   H33       1.0  0.9901909145549651  0.2990749584850789  0.5576416491791107  1.0000
  H   H34       1.0  0.009808833457043399  0.2009234571696084  0.0576416491791107  1.0000
  H   H35       1.0  0.009812301118529394  0.7009248201693126  0.4423602024441422  1.0000
  H   H36       1.0  0.9901881049574185  0.7990723916914249  0.9423595852363889  1.0000
  H   H37       1.0  0.3733083486615527  0.8149713531627043  0.5683353906925106  1.0000
  H   H38       1.0  0.6266942137736108  0.6850297884913914  0.0683341562770039  1.0000
  H   H39       1.0  0.6266941183205573  0.1850294079400285  0.4316664609307495  1.0000
  H   H40       1.0  0.3733090018998837  0.3149699901630001  0.9316639920997429  1.0000
  H   H41       1.0  0.5109016357334326  0.9620310976940871  0.563365016664612  1.0000
  H   H42       1.0  0.4890962427347744  0.5379680790633259  0.0633637822491053  1.0000
  H   H43       1.0  0.48909848926519567  0.0379686809602973  0.4366362177508947  1.0000
  H   H44       1.0  0.5109053796466368  0.4620297346943829  0.9366343661276417  1.0000
  H   H45       1.0  0.2739764407327314  0.0001778231493716  0.5273484754968507  1.0000
  H   H46       1.0  0.7260235888128433  0.4998215749536499  0.0273490927046041  1.0000
  H   H47       1.0  0.7260247144908618  0.99982195550502  0.4726515245031493  1.0000
  H   H48       1.0  0.2739803755520427  0.5001772212524003  0.9726509072953959  1.0000
  H   H49       1.0  0.34187168398000267  0.0886581030149642  0.6183057647204038  1.0000
  H   H50       1.0  0.6581274112499215  0.4113452248814156  0.1183057647204038  1.0000
  H   H51       1.0  0.658129004085758  0.9113436405361028  0.3816954696950958  1.0000
  H   H52       1.0  0.3418732768158462  0.5886565186696515  0.881694235279596  1.0000
  H   H53       1.0  0.20414537443406996  0.9385997048071104  0.6248827305270979  1.0000
  H   H54       1.0  0.7958558762425767  0.5614004543986439  0.12488211331934448  1.0000
  H   H55       1.0  0.7958554992559569  0.0613990913989397  0.3751185038884088  1.0000
  H   H56       1.0  0.2041465907395335  0.4386003067040818  0.8751172694729021  1.0000
  C   C1        1.0  0.9126417431749516  0.43727793123968434  0.4039742007159575  1.0000
  C   C2        1.0  0.0873586638134896  0.0627263791050368  0.9039711146771978  1.0000
  C   C3        1.0  0.08735669881664168  0.5627267596563996  0.5960295025305484  1.0000
  C   C4        1.0  0.9126418386280122  0.9372783117910474  0.0960251820762892  1.0000
  C   C5        1.0  0.3022311724467031  0.9896614747822811  0.592188001481297  1.0000
  C   C6        1.0  0.6977713899884606  0.5103396668718077  0.092188001481297  1.0000
  C   C7        1.0  0.6977702643104493  0.0103392863204448  0.4078126157264563  1.0000
  C   C8        1.0  0.3022310769936496  0.489661094230918  0.9078113813109496  1.0000
  C   C9        1.0  0.34776874166471566  0.8013231808362491  0.7337248487840993  1.0000
  C   C10       1.0  0.6522302629377634  0.6986799257145222  0.2337236143685999  1.0000
  C   C11       1.0  0.6522322279346112  0.1986795451631593  0.2662776200469068  1.0000
  C   C12       1.0  0.3477704251280045  0.3013218178365449  0.7662745340081472  1.0000
  C   C13       1.0  0.2857121875846005  0.8733513808156631  0.7996179484014334  1.0000
  C   C14       1.0  0.71428606832648  0.6266527081834496  0.2996173311936801  1.0000
  C   C15       1.0  0.7142870030983772  0.1266523276320868  0.2003832860140733  1.0000
  C   C16       1.0  0.2857131223564977  0.3733510002643001  0.7003820515985666  1.0000
  C   C17       1.0  0.42676725826181877  0.3312697905566253  0.4874336501666434  1.0000
  C   C18       1.0  0.5732248110176812  0.1687305899947447  0.9874293297123842  1.0000
  C   C19       1.0  0.5732228460208262  0.6687309705461075  0.5125731391186292  1.0000
  C   C20       1.0  0.4267670721813062  0.8312691886596469  0.0125620293790902  1.0000
  C   C21       1.0  0.6835846199085792  0.1518265838725839  0.6439711146771998  1.0000
  C   C22       1.0  0.31641747008690396  0.3481728142304377  0.1439723490927065  1.0000
  C   C23       1.0  0.3164183142313561  0.8481722123334663  0.3560295025305535  1.0000
  C   C24       1.0  0.6835836851366821  0.6518269644239538  0.8560270336995401  1.0000
  C   C25       1.0  0.7021257670573959  0.0289537350009326  0.664613627947169  1.0000
  C   C26       1.0  0.29787660447166087  0.4710466455504303  0.1646142451549224  1.0000
  C   C27       1.0  0.297876418391148  0.9710460436534589  0.3353857548450776  1.0000
  C   C28       1.0  0.7021263296682746  0.5289521506556198  0.8353869892605843  1.0000
  C   C29       1.0  0.8344655692932506  0.0047845234113026  0.6477687939760557  1.0000
  C   C30       1.0  0.16553783246075676  0.4952158571400603  0.1477687939760557  1.0000
  C   C31       1.0  0.165537646380244  0.995215255243089  0.352232440439451  1.0000
  C   C32       1.0  0.8344666949712618  0.5047849039626655  0.8522305888161981  1.0000
  C   C33       1.0  0.938955119428776  0.10105070636408439  0.6075916553511931  1.0000
  C   C34       1.0  0.06104650340888179  0.3989506566356198  0.107593506974446  1.0000
  C   C35       1.0  0.0610480962447184  0.8989490722903071  0.3924077274410536  1.0000
  C   C36       1.0  0.938955963573221  0.6010501044671059  0.8924089618565603  1.0000
  C   C37       1.0  0.9109944068552451  0.22060091495298204  0.5884538945809155  1.0000
  C   C38       1.0  0.0890048739989382  0.279399465598388  0.0884545117886688  1.0000
  C   C39       1.0  0.0890054366098241  0.7793978812530682  0.4115448710035778  1.0000
  C   C40       1.0  0.9109934720833479  0.7206012955043448  0.9115454882113312  1.0000
  C   C41       1.0  0.5900446513295065  0.9311674831219889  0.7117670657943478  1.0000
  C   C42       1.0  0.409953790205833  0.5688336585320997  0.21176706579434773  1.0000
  C   C43       1.0  0.409955755202688  0.0688332779807368  0.2882323169978989  1.0000
  C   C44       1.0  0.59004586763497  0.4311680850189674  0.7882323169978989  1.0000
  C   C45       1.0  0.4141988581988372  0.9120961959638336  0.5972373781014682  1.0000
  C   C46       1.0  0.5858000504943347  0.5879029807935794  0.0972367608937148  1.0000
  C   C47       1.0  0.5858020154911897  0.0879026002422165  0.4027638563140385  1.0000
  C   C48       1.0  0.4141990442793428  0.412096797860805  0.9027620046907785  1.0000
  S   S1        1.0  0.018609275502562583  0.42278190599660803  0.3283921738057032  1.0000
  S   S2        1.0  0.9813901012609205  0.0772224043481131  0.8283866189359372  1.0000
  S   S3        1.0  0.9813878547305066  0.5772218024511417  0.6716152326873228  1.0000
  S   S4        1.0  0.018608807888490675  0.9227803216512953  0.1716084434020502  1.0000
  S   S5        1.0  0.3008023508865563  0.3096117169216726  0.4178323663745188  1.0000
  S   S6        1.0  0.6991856872080716  0.1903817864913151  0.91782310825824  1.0000
  S   S7        1.0  0.6991885918024322  0.6903811845943437  0.5821787433650201  1.0000
  S   S8        1.0  0.30079925975544336  0.8096081676796842  0.0821639303789681  1.0000
  N   N1        1.0  0.8339598851519198  0.4491724332808857  0.4573546475743768  1.0000
  N   N2        1.0  0.1660428638200031  0.05083285951216959  0.9573515615356101  1.0000
  N   N3        1.0  0.16603986859819028  0.5508332400635396  0.5426484384643899  1.0000
  N   N4        1.0  0.8339576386214986  0.9491718313839144  0.0426459696333765  1.0000
  N   N5        1.0  0.5156039130507749  0.3428400846459283  0.5388205159856838  1.0000
  N   N6        1.0  0.48439292991062627  0.157155383663742  0.0388198987779305  1.0000
  N   N7        1.0  0.4843969606392448  0.6571587115601218  0.4611801012220695  1.0000
  N   N8        1.0  0.5156031639031369  0.8428375178522741  0.9611751635600569  1.0000
  N   N9        1.0  0.7861322904692828  0.2458066095403311  0.6077150969016145  1.0000
  N   N10       1.0  0.2138677390762922  0.2541927885626905  0.1077150969016145  1.0000
  N   N11       1.0  0.21386755299578647  0.7541921866657191  0.3922867547216384  1.0000
  N   N12       1.0  0.7861310741638191  0.7458060076433597  0.8922861375138851  1.0000
  N   N13       1.0  0.4558748192380476  0.8903467546333487  0.6819398839649438  1.0000
  N   N14       1.0  0.5441233407637327  0.6096534045724056  0.1819392667571904  1.0000
  N   N15       1.0  0.5441232453106721  0.1096530240210356  0.3180613504505629  1.0000
  N   N16       1.0  0.45587781445985337  0.3903463740819859  0.8180588816195495  1.0000
  O   O1        1.0  0.6231556657909181  0.890246544902766  0.7797728675472158  1.0000
  O   O2        1.0  0.3768444587514637  0.6097496845096302  0.2797747191704757  1.0000
  O   O3        1.0  0.3768480170404018  0.10975126885494288  0.22022589803727743  1.0000
  O   O4        1.0  0.6231560374956899  0.3902441994547203  0.7202240464140246  1.0000
