data_image0
_chemical_formula_structural       Cu2H20C32N12O4
_chemical_formula_sum              "Cu2 H20 C32 N12 O4"
_cell_length_a       9.024399948414473
_cell_length_b       9.23661291549368
_cell_length_c       9.899277416480967
_cell_angle_alpha    80.01131937631769
_cell_angle_beta     67.96297932883803
_cell_angle_gamma    70.57308115659812

_space_group_name_H-M_alt    "P 1"
_space_group_IT_number       1

loop_
  _space_group_symop_operation_xyz
  'x, y, z'

loop_
  _atom_site_type_symbol
  _atom_site_label
  _atom_site_symmetry_multiplicity
  _atom_site_fract_x
  _atom_site_fract_y
  _atom_site_fract_z
  _atom_site_occupancy
  Cu  Cu1       1.0  0.17009429035888252  0.3908218279334577  0.06824248798496771  1.0000
  Cu  Cu2       1.0  0.8299093073705278  0.6091753408366645  0.9317531206298852  1.0000
  H   H1        1.0  0.3792720921909805  0.08265981387776121  0.9470434316416456  1.0000
  H   H2        1.0  0.6207287633815284  0.9173386076514377  0.05295796018373978  1.0000
  H   H3        1.0  0.6407262092434536  0.9823368695855951  0.7363692907132132  1.0000
  H   H4        1.0  0.3592786120178816  0.017660494085170304  0.2636349490204352  1.0000
  H   H5        1.0  0.792653205370961  0.17023168744112382  0.5781384288363467  1.0000
  H   H6        1.0  0.20735356386365575  0.8297634862178639  0.4218705779805559  1.0000
  H   H7        1.0  0.6839319386332648  0.44270501423563513  0.6431233730942192  1.0000
  H   H8        1.0  0.31607565355395917  0.557291289577833  0.35688413204190533  1.0000
  H   H9        1.0  0.03821163687639026  0.7191237677433051  0.13636952673813596  1.0000
  H   H10       1.0  0.9617856216210755  0.2808745620551748  0.8636290959641071  1.0000
  H   H11       1.0  0.13720740709204182  0.9597024495767744  0.02961054603981235  1.0000
  H   H12       1.0  0.8627894763985395  0.0402969869437939  0.9703859870744224  1.0000
  H   H13       1.0  0.4293070780150216  0.8306855002737452  0.5568542160819233  1.0000
  H   H14       1.0  0.5706851345247159  0.16931750761885675  0.44314936556826007  1.0000
  H   H15       1.0  0.6712179580682687  0.8815946701316053  0.3413438154440128  1.0000
  H   H16       1.0  0.32877581465164246  0.11840716873718551  0.6586584220956339  1.0000
  H   H17       1.0  0.9574457995298288  0.786244099630274  0.3628582883153302  1.0000
  H   H18       1.0  0.0425483450004123  0.21375661108289992  0.6371450334108815  1.0000
  H   H19       1.0  0.9912602746018994  0.6395878043364435  0.590415774635076  1.0000
  H   H20       1.0  0.00873506149473259  0.36041288694205786  0.40958612419547785  1.0000
  C   C1        1.0  0.45385012139703224  0.15674979354447774  0.8784587801286249  1.0000
  C   C2        1.0  0.5461507405685848  0.8432486708517858  0.1215446224996483  1.0000
  C   C3        1.0  0.598253779817874  0.10292404642562761  0.7601654714697758  1.0000
  C   C4        1.0  0.40175416819691634  0.8970710220645728  0.2398380908456871  1.0000
  C   C5        1.0  0.6824745025000071  0.20689666006335022  0.674426632129176  1.0000
  C   C6        1.0  0.31753225714494704  0.7930984492950445  0.3255793584833881  1.0000
  C   C7        1.0  0.6217840984643175  0.3600290387216135  0.71098811680109  1.0000
  C   C8        1.0  0.3782246788961884  0.6399672027901246  0.2890159546364826  1.0000
  C   C9        1.0  0.47687505537867747  0.4066439178939306  0.8316019722733611  1.0000
  C   C10       1.0  0.5231254347766098  0.5933556746579498  0.16840034616834731  1.0000
  C   C11       1.0  0.3928187609819389  0.5656262695147732  0.879550531937596  1.0000
  C   C12       1.0  0.6071805344104034  0.4343733210382369  0.12045220399833301  1.0000
  C   C13       1.0  0.15547226628537192  0.7169412228720021  0.04765856544246113  1.0000
  C   C14       1.0  0.8445254465509253  0.2830593866701109  0.9523384767938836  1.0000
  C   C15       1.0  0.20810970144726318  0.8464891488124098  0.9865530603437589  1.0000
  C   C16       1.0  0.7918868230191974  0.15351150159789742  0.01344641018969384  1.0000
  C   C17       1.0  0.44085617253976034  0.6999639484091775  0.8167090207215323  1.0000
  C   C18       1.0  0.5591367644413267  0.3000366745710111  0.18329069689310987  1.0000
  C   C19       1.0  0.5873707701252968  0.7117429310451017  0.6839568462518172  1.0000
  C   C20       1.0  0.4126218046351156  0.2882588843912899  0.31604480338059193  1.0000
  C   C21       1.0  0.5565571393273102  0.7910085401577335  0.5586573862510278  1.0000
  C   C22       1.0  0.44343626797537183  0.2089944697337387  0.4413457779049422  1.0000
  C   C23       1.0  0.6905180558515056  0.81826651325612  0.4400141398272693  1.0000
  C   C24       1.0  0.30947617440377684  0.18173762678983252  0.5599875226479225  1.0000
  C   C25       1.0  0.8495914713898501  0.7643506127668828  0.45091586609177614  1.0000
  C   C26       1.0  0.1503996385050925  0.2356558653266917  0.5490884846044963  1.0000
  C   C27       1.0  0.8684626068503646  0.6840126922849665  0.5789021717388676  1.0000
  C   C28       1.0  0.13153282136441646  0.31599147119337095  0.42110007864356186  1.0000
  C   C29       1.0  0.024621878433528394  0.14061063645990401  0.220409679295031  1.0000
  C   C30       1.0  0.9753885826089146  0.8593909731906068  0.7795746485083086  1.0000
  C   C31       1.0  0.8326625005284568  0.4819985963228391  0.27973285963144434  1.0000
  C   C32       1.0  0.16733678527423015  0.5180009299295849  0.7202668601001462  1.0000
  N   N1        1.0  0.3950718697443563  0.3038434649069401  0.9128994072007898  1.0000
  N   N2        1.0  0.6049305524014414  0.6961538304655122  0.08710265131694676  1.0000
  N   N3        1.0  0.24788171138935408  0.5800530978048929  0.9941842687103982  1.0000
  N   N4        1.0  0.7521147273520654  0.41994412327264286  0.005816861074066537  1.0000
  N   N5        1.0  0.3477836524513975  0.8378430064716794  0.8714899634100063  1.0000
  N   N6        1.0  0.6522129449538883  0.1621609875372769  0.12850382626664464  1.0000
  N   N7        1.0  0.7404859119678449  0.6579489860283873  0.6951647939258405  1.0000
  N   N8        1.0  0.25950703779945883  0.34205172268592327  0.30483894529458405  1.0000
  N   N9        1.0  0.11815342374597292  0.19625208326156243  0.11936446551182905  1.0000
  N   N10       1.0  0.8818596969248775  0.8037448657306356  0.8806167437334336  1.0000
  N   N11       1.0  0.9454203728792693  0.514552723508089  0.17910842066922322  1.0000
  N   N12       1.0  0.054587555956196375  0.4854422163809319  0.8208891092375694  1.0000
  O   O1        1.0  0.9356729341110324  0.0758045901649993  0.3167105586446014  1.0000
  O   O2        1.0  0.06433616697032106  0.9242052400766528  0.6832808433802453  1.0000
  O   O3        1.0  0.7163140071371501  0.4548436620917188  0.3796240416997491  1.0000
  O   O4        1.0  0.283683047803521  0.5451626330943994  0.6203691729124542  1.0000
