data_image0
_chemical_formula_structural       Zn2H32C44N2O8
_chemical_formula_sum              "Zn2 H32 C44 N2 O8"
_cell_length_a       13.941336550983799
_cell_length_b       15.266184749046182
_cell_length_c       17.81282738293957
_cell_angle_alpha    89.99603994007245
_cell_angle_beta     90.21679492005072
_cell_angle_gamma    89.99911497670719

_space_group_name_H-M_alt    "P 1"
_space_group_IT_number       1

loop_
  _space_group_symop_operation_xyz
  'x, y, z'

loop_
  _atom_site_type_symbol
  _atom_site_label
  _atom_site_symmetry_multiplicity
  _atom_site_fract_x
  _atom_site_fract_y
  _atom_site_fract_z
  _atom_site_occupancy
  Zn  Zn1       1.0  0.40055522627039863  0.49480671688088057  0.5012874508463981  1.0000
  Zn  Zn2       1.0  0.5994461685858284  0.4948032202367045  0.49871545864856875  1.0000
  H   H1        1.0  0.34546269244430056  0.5439364013722283  0.877601425514129  1.0000
  H   H2        1.0  0.6545278188190624  0.5439155018096715  0.12239286385150192  1.0000
  H   H3        1.0  0.3456737968165768  0.559032224386691  0.1229187773067792  1.0000
  H   H4        1.0  0.6543186146638434  0.5590249992407907  0.8770764118412588  1.0000
  H   H5        1.0  0.34692277331885896  0.5160102912728136  0.7391867375939827  1.0000
  H   H6        1.0  0.6530674994498968  0.5159966175316131  0.2608126829002729  1.0000
  H   H7        1.0  0.34605215675247075  0.5324836797748915  0.2614736168424088  1.0000
  H   H8        1.0  0.6539407044470026  0.5324757976829845  0.7385236728397757  1.0000
  H   H9        1.0  0.4378369862080476  0.05463236587053191  0.6103785892470412  1.0000
  H   H10       1.0  0.5541674114542375  0.9354672751411218  0.6132865003351429  1.0000
  H   H11       1.0  0.44582439201752083  0.9354945042061406  0.3866942298778895  1.0000
  H   H12       1.0  0.5621560063295021  0.0546587303791384  0.3896199981153714  1.0000
  H   H13       1.0  0.9330217985508612  0.4515206001753853  0.3852353394151606  1.0000
  H   H14       1.0  0.066979641495216  0.4515595314155264  0.6147858793194061  1.0000
  H   H15       1.0  0.930725175227103  0.5476643019450407  0.6136518271817195  1.0000
  H   H16       1.0  0.06927458054192212  0.547621678389966  0.3863334490125538  1.0000
  H   H17       1.0  0.7527695028493255  0.4524142046468214  0.3891455506368544  1.0000
  H   H18       1.0  0.24723120792631903  0.4524574682740123  0.6108772043949031  1.0000
  H   H19       1.0  0.7505459201838248  0.542200416044615  0.6077354862850228  1.0000
  H   H20       1.0  0.24945178826131814  0.5421666608300417  0.3922562938423938  1.0000
  H   H21       1.0  0.35882106383048296  0.2670901758684466  0.6132645374607364  1.0000
  H   H22       1.0  0.40685791052993653  0.18633022770270466  0.6751800656139224  1.0000
  H   H23       1.0  0.475342689048432  0.28032625069882044  0.6502215856073335  1.0000
  H   H24       1.0  0.6281680215733516  0.7181133356735004  0.6193969681152112  1.0000
  H   H25       1.0  0.5846503610401899  0.8035041915304292  0.6784418094519894  1.0000
  H   H26       1.0  0.5098448704347972  0.7135607437014074  0.6536842493887819  1.0000
  H   H27       1.0  0.490142044739045  0.713585495413753  0.3462940563698212  1.0000
  H   H28       1.0  0.3718296052813699  0.7181399598873384  0.3805957686615855  1.0000
  H   H29       1.0  0.41533146462357  0.8035350634122977  0.321539730251061  1.0000
  H   H30       1.0  0.64119207874613  0.2671138992771702  0.3867565738737682  1.0000
  H   H31       1.0  0.5931501120463736  0.18637311521172253  0.324831236277376  1.0000
  H   H32       1.0  0.5246716671305407  0.2803657786192773  0.3498001671345321  1.0000
  C   C1        1.0  0.5000161251402205  0.32529601449811446  0.5000105817862065  1.0000
  C   C2        1.0  0.5000089213407505  0.6649840307315316  0.49998557737114174  1.0000
  C   C3        1.0  0.5000061829385983  0.2270140906116113  0.5000068182181537  1.0000
  C   C4        1.0  0.5000045142974371  0.7632639895427149  0.4999876319056824  1.0000
  C   C5        1.0  0.49999479680332837  0.04348689890366591  0.49999936181111343  1.0000
  C   C6        1.0  0.49999580935414667  0.9466726185805928  0.4999911332368542  1.0000
  C   C7        1.0  0.895737759077292  0.47331568378101  0.4355289631725158  1.0000
  C   C8        1.0  0.10425683694921162  0.4733391856622334  0.564480818120316  1.0000
  C   C9        1.0  0.8945052166959899  0.5249847798720568  0.5629421531755838  1.0000
  C   C10       1.0  0.10548991814719949  0.5249571928145401  0.437053001084422  1.0000
  C   C11       1.0  0.7960804878841613  0.4726692825658532  0.43725337242724294  1.0000
  C   C12       1.0  0.2039213066513597  0.47269515329922035  0.5627638251382763  1.0000
  C   C13       1.0  0.7949222151694358  0.5230235694193369  0.5601677890094338  1.0000
  C   C14       1.0  0.20508228023368247  0.5230038691767264  0.4398288247062325  1.0000
  C   C15       1.0  0.9470861342496592  0.4995471465896345  0.499591646514503  1.0000
  C   C16       1.0  0.0529151805961874  0.4995471510903613  0.5004110480694237  1.0000
  C   C17       1.0  0.499085700163171  0.5045536826163115  0.3521276356602599  1.0000
  C   C18       1.0  0.5008997507413682  0.5045562152357591  0.6478753344182169  1.0000
  C   C19       1.0  0.4128845640752773  0.5412558404332586  0.8468862962874795  1.0000
  C   C20       1.0  0.587104557240643  0.5412463305384279  0.15310786706396584  1.0000
  C   C21       1.0  0.4128781897568103  0.5499688484347871  0.1534187404204062  1.0000
  C   C22       1.0  0.587112936553176  0.5499672790382562  0.8465751224824061  1.0000
  C   C23       1.0  0.4136709097115059  0.5256398795105357  0.7700970001209697  1.0000
  C   C24       1.0  0.5863191993817694  0.5256324846598304  0.2299014048672987  1.0000
  C   C25       1.0  0.4130613182864878  0.5350093852162489  0.2302857712918467  1.0000
  C   C26       1.0  0.5869307845778948  0.5350089856089396  0.7697122258548391  1.0000
  C   C27       1.0  0.5005300073194975  0.5217228452821062  0.7307294064732446  1.0000
  C   C28       1.0  0.49946375521415126  0.5217211057898724  0.2692696455322263  1.0000
  C   C29       1.0  0.49990958632334076  0.552318786896592  0.8866815998955815  1.0000
  C   C30       1.0  0.5000836550602302  0.552312685345534  0.113313566625834  1.0000
  C   C31       1.0  0.4999476208642335  0.5608256342759932  0.9657106308238143  1.0000
  C   C32       1.0  0.5000440347832084  0.5608231873344351  0.0342803333263362  1.0000
  C   C33       1.0  0.46592028769153865  0.09045364159447902  0.5621217207634146  1.0000
  C   C34       1.0  0.5294810811306262  0.8997078157015181  0.5637404379701891  1.0000
  C   C35       1.0  0.47051347601805565  0.8997252861870849  0.4362410981438885  1.0000
  C   C36       1.0  0.5340756920094523  0.09046831875605932  0.4378777465240589  1.0000
  C   C37       1.0  0.46412692983648185  0.18195590954063331  0.5628055507010289  1.0000
  C   C38       1.0  0.5309396265002775  0.8081898760758577  0.5645813328384435  1.0000
  C   C39       1.0  0.4690643452442416  0.8082060058054806  0.43539442721123583  1.0000
  C   C40       1.0  0.5358775802152422  0.18197117379389033  0.4372059018906285  1.0000
  C   C41       1.0  0.4242527000495856  0.23117289275099753  0.6290612639534673  1.0000
  C   C42       1.0  0.565231672254413  0.7586240000262167  0.6327444870077272  1.0000
  C   C43       1.0  0.4347616694954084  0.7586515039024067  0.3672388047684336  1.0000
  C   C44       1.0  0.5757603139731203  0.23120053011665936  0.3709528134562845  1.0000
  N   N1        1.0  0.7468151062779712  0.4969801550121744  0.4985393301369214  1.0000
  N   N2        1.0  0.2531841106243037  0.49698253979221374  0.501468833286488  1.0000
  O   O1        1.0  0.4195642581125441  0.36318199714431654  0.49029659995973424  1.0000
  O   O2        1.0  0.5794247894001076  0.6271543309006802  0.4865031995282081  1.0000
  O   O3        1.0  0.4205815030895296  0.627153045139515  0.5134724426931854  1.0000
  O   O4        1.0  0.5804522887075053  0.3631742142584572  0.5097222657323712  1.0000
  O   O5        1.0  0.4190893245800141  0.5126509769732052  0.3859327701332802  1.0000
  O   O6        1.0  0.580906740562675  0.5126502615326701  0.6140655250438343  1.0000
  O   O7        1.0  0.4213112011437161  0.4838565096207362  0.6172040819801481  1.0000
  O   O8        1.0  0.5786824952937336  0.4838488059896805  0.38280285226516503  1.0000
