data_image0
_chemical_formula_structural       Zn2H24C42N2O12
_chemical_formula_sum              "Zn2 H24 C42 N2 O12"
_cell_length_a       10.95677462304292
_cell_length_b       14.802983082820182
_cell_length_c       16.167521549546898
_cell_angle_alpha    90.50501016322102
_cell_angle_beta     91.65119381528267
_cell_angle_gamma    89.90069018035857

_space_group_name_H-M_alt    "P 1"
_space_group_IT_number       1

loop_
  _space_group_symop_operation_xyz
  'x, y, z'

loop_
  _atom_site_type_symbol
  _atom_site_label
  _atom_site_symmetry_multiplicity
  _atom_site_fract_x
  _atom_site_fract_y
  _atom_site_fract_z
  _atom_site_occupancy
  Zn  Zn1       1.0  0.5049134581855199  0.4040476146547789  0.4985517705101117  1.0000
  Zn  Zn2       1.0  0.5029054919001938  0.5928656330294332  0.5014501738970054  1.0000
  H   H1        1.0  0.7002460597579655  0.7606286069680052  0.2149754714491863  1.0000
  H   H2        1.0  0.30088978488725354  0.2763112379467216  0.8121897643593385  1.0000
  H   H3        1.0  0.6868507717470109  0.5927271669747471  0.20457176080919484  1.0000
  H   H4        1.0  0.19877270533937264  0.42384885086747204  0.8390252179503364  1.0000
  H   H5        1.0  0.798313989320185  0.49712320952894373  0.3067158381111668  1.0000
  H   H6        1.0  0.0895154319402351  0.5037490249657496  0.7242524868824776  1.0000
  H   H7        1.0  0.9428693052527564  0.7349444012928928  0.4285204190115125  1.0000
  H   H8        1.0  0.18646917513584066  0.2914687630027472  0.555260772505072  1.0000
  H   H9        1.0  0.8294481833137014  0.8316043273002478  0.3273943873130847  1.0000
  H   H10       1.0  0.29443944537280226  0.2101412104454496  0.6698663739970243  1.0000
  H   H11       1.0  0.4389434773268661  0.3582560987804868  0.9151090969068322  1.0000
  H   H12       1.0  0.5127086160868828  0.6371183253664229  0.08315418619965702  1.0000
  H   H13       1.0  0.41918514541031726  0.35467946637072595  0.06825157772573928  1.0000
  H   H14       1.0  0.5332221761184712  0.6403338043574179  0.9302052278979789  1.0000
  H   H15       1.0  0.49045719891922346  0.9053771053620138  0.6255670805009361  1.0000
  H   H16       1.0  0.5173524534896217  0.09017363531462763  0.37020423906133  1.0000
  H   H17       1.0  0.48445473660393656  0.046109946582525686  0.6951171850727107  1.0000
  H   H18       1.0  0.5234141179169854  0.9491187016858972  0.30070860387633763  1.0000
  H   H19       1.0  0.07195235511508  0.5559873326943431  0.2745194724900273  1.0000
  H   H20       1.0  0.19718952458408986  0.49274917454863504  0.31977305497624553  1.0000
  H   H21       1.0  0.2232358622186864  0.603523771189643  0.280688590616748  1.0000
  H   H22       1.0  0.9374169967897004  0.28478848034359316  0.6238412879471227  1.0000
  H   H23       1.0  0.8065932704916109  0.30421077462419543  0.5553577496705773  1.0000
  H   H24       1.0  0.7892665518409244  0.30614443354953386  0.6652397480400296  1.0000
  C   C1        1.0  0.5190889449204691  0.503204851455628  0.6615748408758577  1.0000
  C   C2        1.0  0.47891590049794536  0.4857113839114575  0.3383327467424452  1.0000
  C   C3        1.0  0.1317536957175847  0.5007859632260505  0.5048536152640608  1.0000
  C   C4        1.0  0.8764337224935373  0.5030844482592228  0.4955195100912704  1.0000
  C   C5        1.0  0.06652434132452359  0.45212141296007513  0.5635171450453812  1.0000
  C   C6        1.0  0.9417211637592403  0.5536375764741094  0.43827029763495073  1.0000
  C   C7        1.0  0.4439287170428798  0.417021403567432  0.037593500268549504  1.0000
  C   C8        1.0  0.5081153002492798  0.578058121265265  0.9608263697858136  1.0000
  C   C9        1.0  0.46603895964126724  0.49537600706601387  0.08613638414033892  1.0000
  C   C10       1.0  0.48845291604138197  0.49928395089876426  0.9124102724482981  1.0000
  C   C11       1.0  0.49673780239082543  0.5762587067719734  0.04599659452760112  1.0000
  C   C12       1.0  0.45494057758258327  0.418969562600644  0.9524090336115807  1.0000
  C   C13       1.0  0.4627731240195417  0.4922847157519428  0.1735314597361111  1.0000
  C   C14       1.0  0.5021779120065092  0.5006004932649689  0.8256577386434005  1.0000
  C   C15       1.0  0.5133914308887881  0.5011098094866496  0.7508976683971085  1.0000
  C   C16       1.0  0.4663851522001394  0.4892939946186202  0.24892007113853512  1.0000
  C   C17       1.0  0.4958963362830389  0.0407772509815416  0.5764044870504037  1.0000
  C   C18       1.0  0.5121331519051182  0.9547917390409709  0.4194016954585678  1.0000
  C   C19       1.0  0.5038028030034241  0.09147095817750991  0.5029815404548614  1.0000
  C   C20       1.0  0.5043548385631594  0.9041717994879831  0.4928849605695262  1.0000
  C   C21       1.0  0.5116598977041062  0.048701686870380484  0.42537883913328767  1.0000
  C   C22       1.0  0.4963924945406434  0.9469044669113843  0.5704333174204733  1.0000
  C   C23       1.0  0.7392910219229735  0.5028031876833338  0.4929988061254349  1.0000
  C   C24       1.0  0.2690415184346122  0.5013177946182951  0.506951379464944  1.0000
  C   C25       1.0  0.5041653194155343  0.1871299823994619  0.5069396548478977  1.0000
  C   C26       1.0  0.5036867224037067  0.8085183021893059  0.48913383127671045  1.0000
  C   C27       1.0  0.7431037111337275  0.624500210914924  0.2533079839738264  1.0000
  C   C28       1.0  0.1950270188003387  0.3939329160372296  0.7770627814869188  1.0000
  C   C29       1.0  0.8059182500769353  0.5705542964849714  0.3107905723521043  1.0000
  C   C30       1.0  0.1341146574328249  0.4391357626489381  0.7125983067021195  1.0000
  C   C31       1.0  0.8778424931296696  0.6098089352870629  0.3745199945107275  1.0000
  C   C32       1.0  0.13034531440791855  0.40261803779900873  0.6322430500994829  1.0000
  C   C33       1.0  0.8868799254612938  0.704241658839841  0.37904321577102  1.0000
  C   C34       1.0  0.1878155708719191  0.3194071539162878  0.6178745004204345  1.0000
  C   C35       1.0  0.8230579953004664  0.7581536143412108  0.3222083317344087  1.0000
  C   C36       1.0  0.24838021895988763  0.2740698868736189  0.6822930555764446  1.0000
  C   C37       1.0  0.7508031557711945  0.7184528526632762  0.25920038386670546  1.0000
  C   C38       1.0  0.2522933108333731  0.3113130409682442  0.7619953276696237  1.0000
  C   C39       1.0  0.0698702329895227  0.5518798452274468  0.44393573303830897  1.0000
  C   C40       1.0  0.9382533752565864  0.4549250832309609  0.5585305303775385  1.0000
  C   C41       1.0  0.15758050381234062  0.5606842580007055  0.3117709166478377  1.0000
  C   C42       1.0  0.8508978496408376  0.3220311261629405  0.6151721794299618  1.0000
  N   N1        1.0  0.5019015802393482  0.7302154938104835  0.4896319101079172  1.0000
  N   N2        1.0  0.5052103795323218  0.2655118656536927  0.5074090199037259  1.0000
  O   O1        1.0  0.5133419388393817  0.42689193117711716  0.6243924988629388  1.0000
  O   O2        1.0  0.47412401612783844  0.5611267106695265  0.376606817407108  1.0000
  O   O3        1.0  0.5274550154289058  0.5807802315771227  0.6291021325501448  1.0000
  O   O4        1.0  0.49413071056608254  0.40770281580698514  0.3694954543677583  1.0000
  O   O5        1.0  0.687586669813541  0.42584551821813926  0.48969645772271525  1.0000
  O   O6        1.0  0.32154321403648817  0.5763900733987056  0.5210292419589209  1.0000
  O   O7        1.0  0.6863040584857957  0.5791346309060971  0.4938832318454872  1.0000
  O   O8        1.0  0.3209071209888279  0.42578865969746  0.49327531934537217  1.0000
  O   O9        1.0  0.48808049342596144  0.08747696303687041  0.6487205454668158  1.0000
  O   O10       1.0  0.5194514952233361  0.9079650515973583  0.34723512463247636  1.0000
  O   O11       1.0  0.1372061227319108  0.6027921752773437  0.390539748901169  1.0000
  O   O12       1.0  0.8704010033601008  0.4178048620684293  0.6203758424227033  1.0000
