data_image0
_chemical_formula_structural       Ca2H32C32Cl4O12
_chemical_formula_sum              "Ca2 H32 C32 Cl4 O12"
_cell_length_a       6.639543152089433
_cell_length_b       11.399245963160249
_cell_length_c       13.352587818443064
_cell_angle_alpha    106.12726713464563
_cell_angle_beta     90.00010674674287
_cell_angle_gamma    89.99942425421713

_space_group_name_H-M_alt    "P 1"
_space_group_IT_number       1

loop_
  _space_group_symop_operation_xyz
  'x, y, z'

loop_
  _atom_site_type_symbol
  _atom_site_label
  _atom_site_symmetry_multiplicity
  _atom_site_fract_x
  _atom_site_fract_y
  _atom_site_fract_z
  _atom_site_occupancy
  Ca  Ca1       1.0  0.7954454033048038  0.044809383500023586  0.4496391980191774  1.0000
  Ca  Ca2       1.0  0.2954397034816836  0.955182143400279  0.5503546118383866  1.0000
  H   H1        1.0  0.5352714804859957  0.2894092480010286  0.9744937257068855  1.0000
  H   H2        1.0  0.03525854749799609  0.7105848424250992  0.025504983040171614  1.0000
  H   H3        1.0  0.23030062674207127  0.42007895067253986  0.9855332828776967  1.0000
  H   H4        1.0  0.730289370749901  0.5799267203619678  0.014469759653138698  1.0000
  H   H5        1.0  0.19010676371318883  0.5466602939486548  0.8618565607068263  1.0000
  H   H6        1.0  0.6900951727816179  0.4533438111956157  0.1381475860838108  1.0000
  H   H7        1.0  0.4511063977405314  0.5413198970837384  0.7276370120325879  1.0000
  H   H8        1.0  0.9510983212602041  0.4586853074708159  0.2723653350246522  1.0000
  H   H9        1.0  0.955547165097876  0.43168169363708125  0.7353567799929337  1.0000
  H   H10       1.0  0.45554521364763184  0.5683161829925253  0.2646446152540206  1.0000
  H   H11       1.0  0.7825903236232892  0.49156081298254856  0.6626541917767383  1.0000
  H   H12       1.0  0.28257614611555226  0.5084427318297884  0.3373521393300365  1.0000
  H   H13       1.0  0.7028819069667308  0.09850539845111679  0.017691414940870197  1.0000
  H   H14       1.0  0.2028925721418489  0.9014940356127994  0.9823079103852238  1.0000
  H   H15       1.0  0.7310020611106721  0.9244854647641957  0.09649253348052869  1.0000
  H   H16       1.0  0.2309991781206264  0.07551104452600299  0.9035046344895791  1.0000
  H   H17       1.0  0.0203586424135906  0.9118529006601435  0.20912668492655231  1.0000
  H   H18       1.0  0.5203636118193627  0.0881421803445122  0.79086999644408  1.0000
  H   H19       1.0  0.9748391239143289  0.25552054978391675  0.04879276999733408  1.0000
  H   H20       1.0  0.4748522960877608  0.7444753547399828  0.9512044361678136  1.0000
  H   H21       1.0  0.4336165414152048  0.1494022504178076  0.2793001117998557  1.0000
  H   H22       1.0  0.9336279408827082  0.850605781974949  0.7206998842886778  1.0000
  H   H23       1.0  0.4504146487984855  0.994746065581154  0.21229441714293526  1.0000
  H   H24       1.0  0.9504029265136253  0.0052655150080412  0.7877064163361284  1.0000
  H   H25       1.0  0.9381008576718558  0.7936481222837273  0.3751968050884074  1.0000
  H   H26       1.0  0.43811261536566803  0.20633978725783214  0.6247977660901328  1.0000
  H   H27       1.0  0.7019838453683817  0.7813363407958034  0.3901897935450335  1.0000
  H   H28       1.0  0.20199532952083388  0.21865849712263943  0.6098032198457943  1.0000
  H   H29       1.0  0.9024753265030724  0.18904064465591827  0.3033209561658907  1.0000
  H   H30       1.0  0.40247270100523014  0.8109630055210885  0.6966765002006382  1.0000
  H   H31       1.0  0.896885798496598  0.2547549514340517  0.42358763090567914  1.0000
  H   H32       1.0  0.3968852552520162  0.7452414435171022  0.5764103810589917  1.0000
  C   C1        1.0  0.6632072371519798  0.3457644501767874  0.8466541466442551  1.0000
  C   C2        1.0  0.16319431101732823  0.654236138985368  0.1533446692482201  1.0000
  C   C3        1.0  0.5156099005778572  0.34529331654707107  0.9209649910692406  1.0000
  C   C4        1.0  0.015604169305056802  0.6547072730913114  0.0790329677654427  1.0000
  C   C5        1.0  0.34484604525606943  0.4180685918970679  0.9265886202841996  1.0000
  C   C6        1.0  0.8448335093592689  0.581933631698547  0.07341445352821549  1.0000
  C   C7        1.0  0.3225756916720997  0.48882030839606455  0.8570689124291491  1.0000
  C   C8        1.0  0.8225631477838534  0.5111884562933183  0.1429371639454544  1.0000
  C   C9        1.0  0.47003599511155875  0.48620517822161696  0.7820785988578862  1.0000
  C   C10       1.0  0.9700252441220555  0.5138063007168937  0.2179252210946956  1.0000
  C   C11       1.0  0.6448678827865068  0.41537119101185027  0.7754227577924269  1.0000
  C   C12       1.0  0.14485041861708942  0.5846295840615453  0.22458657290406586  1.0000
  C   C13       1.0  0.8071499559893597  0.41593176946987837  0.6975288652722398  1.0000
  C   C14       1.0  0.30713284492077253  0.584065199511528  0.302471461151363  1.0000
  C   C15       1.0  0.8263372897772356  0.30033499277021747  0.6065895657166109  1.0000
  C   C16       1.0  0.3263502618910082  0.6996655503601159  0.39341759734633536  1.0000
  C   C17       1.0  0.8317840128095498  0.09166158295296611  0.06627237290354061  1.0000
  C   C18       1.0  0.33180790353287654  0.9083425738065142  0.9337348855229662  1.0000
  C   C19       1.0  0.847175157610657  0.994679771127117  0.11093989192291072  1.0000
  C   C20       1.0  0.34718544201324864  0.005315106893384298  0.8890577308507446  1.0000
  C   C21       1.0  0.0113844217754888  0.9871280489623755  0.17383719905447484  1.0000
  C   C22       1.0  0.5113923206460598  0.012867062278417099  0.8261557381154887  1.0000
  C   C23       1.0  0.16639678653851322  0.07483721827449588  0.19311935762203797  1.0000
  C   C24       1.0  0.6664042983384847  0.9251606012015685  0.8068773187072936  1.0000
  C   C25       1.0  0.14879677964404436  0.1696945636495855  0.1451774915690009  1.0000
  C   C26       1.0  0.64880308808506  0.8303079261328604  0.8548195089325787  1.0000
  C   C27       1.0  0.9832365009669745  0.17965500083697347  0.0833390822064928  1.0000
  C   C28       1.0  0.48325577374764345  0.8203463970440337  0.9166691436109886  1.0000
  C   C29       1.0  0.34591087675777743  0.0641563974272614  0.2580709389739511  1.0000
  C   C30       1.0  0.8459209343557389  0.9358476406920316  0.7419318086377302  1.0000
  C   C31       1.0  0.30631377584467157  0.030801657420163095  0.35878534707204324  1.0000
  C   C32       1.0  0.8063183090512139  0.9691980254755349  0.6412111162447899  1.0000
  Cl  Cl1       1.0  0.8800481814979407  0.2589694545712362  0.8435641825217317  1.0000
  Cl  Cl2       1.0  0.38003380737785625  0.7410270606090419  0.15643609183830878  1.0000
  Cl  Cl3       1.0  0.3399656816878078  0.27768228324254807  0.15962522316410596  1.0000
  Cl  Cl4       1.0  0.8399812756038968  0.7223172055067265  0.8403734664805002  1.0000
  O   O1        1.0  0.9892325331985602  0.28654146756745286  0.5537977197540869  1.0000
  O   O2        1.0  0.48921990161944245  0.7134716362425237  0.4461945092306365  1.0000
  O   O3        1.0  0.6810944500855598  0.2247111931468453  0.5840935917454999  1.0000
  O   O4        1.0  0.18105503960587296  0.7752847598744168  0.4159101506318805  1.0000
  O   O5        1.0  0.13119941389889078  0.02895337789760789  0.3952455521898628  1.0000
  O   O6        1.0  0.6312127919971147  0.9710337128332824  0.6047501013807093  1.0000
  O   O7        1.0  0.46135638227496406  0.005975767508189699  0.405752184878736  1.0000
  O   O8        1.0  0.9613678207820585  0.9940302351137261  0.5942428659782948  1.0000
  O   O9        1.0  0.8054061583684912  0.8306367553885109  0.3674008307806318  1.0000
  O   O10       1.0  0.305400499798523  0.16935285753991988  0.6325887966646917  1.0000
  O   O11       1.0  0.8118289777296539  0.21086861536299037  0.36313675498415426  1.0000
  O   O12       1.0  0.311824949865354  0.7891292632433531  0.6368675310467465  1.0000
