data_image0
_chemical_formula_structural       Zn4H44C92N4O36F2
_chemical_formula_sum              "Zn4 H44 C92 N4 O36 F2"
_cell_length_a       16.498027174439017
_cell_length_b       17.896647586170783
_cell_length_c       28.98047841867937
_cell_angle_alpha    90.24560698012174
_cell_angle_beta     89.70132152174594
_cell_angle_gamma    89.89761863432368

_space_group_name_H-M_alt    "P 1"
_space_group_IT_number       1

loop_
  _space_group_symop_operation_xyz
  'x, y, z'

loop_
  _atom_site_type_symbol
  _atom_site_label
  _atom_site_symmetry_multiplicity
  _atom_site_fract_x
  _atom_site_fract_y
  _atom_site_fract_z
  _atom_site_occupancy
  Zn  Zn1       1.0  0.5821674819903323  0.5004565318889362  0.5013908158061186  1.0000
  Zn  Zn2       1.0  0.4146621728958096  0.4985671412369541  0.5001831055376726  1.0000
  Zn  Zn3       1.0  0.41553658351956096  0.5034103699718673  0.8855908920699564  1.0000
  Zn  Zn4       1.0  0.5834831497788501  0.5011536994873182  0.8823391123197555  1.0000
  H   H1        1.0  0.2847921256082131  0.57478319188921  0.5531524184632772  1.0000
  H   H2        1.0  0.1327465855638508  0.5789097840425228  0.5546136019998045  1.0000
  H   H3        1.0  0.2860675854298266  0.4198145843215215  0.44631474903889773  1.0000
  H   H4        1.0  0.7083362760778656  0.583142510085956  0.55318897459167  1.0000
  H   H5        1.0  0.7147656617401807  0.41447535639801447  0.454816694003796  1.0000
  H   H6        1.0  0.8671399388925635  0.41380623590588067  0.45382054735931393  1.0000
  H   H7        1.0  0.6268505417920734  0.7401940350537541  0.5050987172081065  1.0000
  H   H8        1.0  0.6239702318761147  0.8794281707417679  0.5024692307877318  1.0000
  H   H9        1.0  0.36713093689056825  0.7361734733798782  0.4946257402041568  1.0000
  H   H10       1.0  0.6323024802411084  0.2634798932607012  0.4929017141616684  1.0000
  H   H11       1.0  0.3720546388370921  0.2587294764663213  0.500051872034014  1.0000
  H   H12       1.0  0.37571631698257596  0.11950302659230519  0.4976608045501224  1.0000
  H   H13       1.0  0.6889088020891095  0.5522570700766423  0.7320315265781759  1.0000
  H   H14       1.0  0.6871148235382022  0.4525164970513415  0.7324438045052661  1.0000
  H   H15       1.0  0.6822658399974132  0.45139153505553486  0.6454780661841186  1.0000
  H   H16       1.0  0.6852551631497478  0.5511331438556509  0.645524576599712  1.0000
  H   H17       1.0  0.374981152064386  0.5101911218184935  0.0337110780326952  1.0000
  H   H18       1.0  0.3798428355133581  0.5046555965841364  0.11969595260644893  1.0000
  H   H19       1.0  0.6350330679126869  0.4964574510355887  0.028317370256601707  1.0000
  H   H20       1.0  0.3707157465408173  0.49096581337328626  0.35495725035281833  1.0000
  H   H21       1.0  0.630850002921875  0.5043339364917188  0.3526125217236428  1.0000
  H   H22       1.0  0.6288411754868619  0.5018183660624089  0.26646306429230293  1.0000
  H   H23       1.0  0.7149389094132345  0.5837019659765872  0.8347116586093153  1.0000
  H   H24       1.0  0.866984966767049  0.587804832424787  0.8351116052224088  1.0000
  H   H25       1.0  0.710462225134215  0.42088744084118446  0.9360333064120215  1.0000
  H   H26       1.0  0.28900111183888544  0.588468224943469  0.8353401582691478  1.0000
  H   H27       1.0  0.28349215432207586  0.41385566669476487  0.9288852415726014  1.0000
  H   H28       1.0  0.1311372449011543  0.4136977745379368  0.9303304786436044  1.0000
  H   H29       1.0  0.36850566111161237  0.7456509758907186  0.8781952989529886  1.0000
  H   H30       1.0  0.37457499178538717  0.8847243199283168  0.880874636988864  1.0000
  H   H31       1.0  0.6282548365773336  0.736113037970412  0.8875740772336514  1.0000
  H   H32       1.0  0.3657569507818367  0.26518187957471184  0.8935168003117867  1.0000
  H   H33       1.0  0.6259556751884645  0.2625991016206867  0.8850249082663597  1.0000
  H   H34       1.0  0.6242371061441362  0.12334339489387955  0.8860458536001732  1.0000
  H   H35       1.0  0.0284075149393814  0.4515849860208049  0.4350143188657612  1.0000
  H   H36       1.0  0.9697946308300445  0.5968976985609799  0.5410113321596058  1.0000
  H   H37       1.0  0.3814685441154566  0.9774012171284527  0.48771056980143623  1.0000
  H   H38       1.0  0.6196897375902068  0.021870071742355897  0.4912995351665047  1.0000
  H   H39       1.0  0.6239499771649123  0.48379522815160647  0.17741991899977452  1.0000
  H   H40       1.0  0.38657886547201775  0.4828857222500673  0.2058857308990909  1.0000
  H   H41       1.0  0.9682581806872009  0.4512871601682985  0.9507615453797343  1.0000
  H   H42       1.0  0.025973458130778195  0.5961030921279472  0.8454716479756855  1.0000
  H   H43       1.0  0.6195264330000895  0.9776469551192264  0.8947875793424772  1.0000
  H   H44       1.0  0.38165721233154676  0.023810405991042696  0.8933362276288934  1.0000
  C   C1        1.0  0.4985409771947501  0.6456093551397613  0.5002243566929893  1.0000
  C   C2        1.0  0.4945602255999192  0.5028527547162795  0.5904071283741885  1.0000
  C   C3        1.0  0.5003906997735826  0.3536324027223259  0.4988805346419484  1.0000
  C   C4        1.0  0.501560069948063  0.4978135248691586  0.4108428178333058  1.0000
  C   C5        1.0  0.4954019182331919  0.6483130638363689  0.8823379786833957  1.0000
  C   C6        1.0  0.5039564314899749  0.5021179709292697  0.7944191583668714  1.0000
  C   C7        1.0  0.4966567677235787  0.3565472810373577  0.8876401288332192  1.0000
  C   C8        1.0  0.5021625715463784  0.5046288806842583  0.9739462496084317  1.0000
  C   C9        1.0  0.2486476898551544  0.5416814699957155  0.529239861714565  1.0000
  C   C10       1.0  0.16468455641135196  0.5434429381837871  0.5298777866245886  1.0000
  C   C11       1.0  0.12134939062573122  0.498441291860324  0.4985197279529317  1.0000
  C   C12       1.0  0.16533965959622784  0.4520680905490052  0.4674840978547509  1.0000
  C   C13       1.0  0.2499513086279563  0.4544963525574558  0.46964232569391845  1.0000
  C   C14       1.0  0.035497569879616706  0.5004640780440255  0.4999560335248746  1.0000
  C   C15       1.0  0.9615502574352915  0.5033212476495237  0.5029165115426083  1.0000
  C   C16       1.0  0.8756933324269625  0.5032911047818871  0.5045885469238842  1.0000
  C   C17       1.0  0.8301153666083111  0.5513722590992174  0.5338561098870827  1.0000
  C   C18       1.0  0.7456434975456079  0.5468513451454698  0.5314721951067299  1.0000
  C   C19       1.0  0.749849454189089  0.4526664711760447  0.4762344449933524  1.0000
  C   C20       1.0  0.8338452295349158  0.4526818582075761  0.4758800003646898  1.0000
  C   C21       1.0  0.497265339834584  0.7294360829283661  0.49972925850919847  1.0000
  C   C22       1.0  0.5696168104721763  0.7701938550482905  0.5022203003274799  1.0000
  C   C23       1.0  0.5677848283435337  0.8475760699221552  0.5008213565169087  1.0000
  C   C24       1.0  0.4933816470238027  0.8864803875597003  0.49727159852539426  1.0000
  C   C25       1.0  0.4196573533265778  0.8453807643173548  0.495406453410908  1.0000
  C   C26       1.0  0.42358937109866446  0.7674387145842302  0.49647884492132743  1.0000
  C   C27       1.0  0.4966912772984885  0.9654803857071884  0.4958283489210587  1.0000
  C   C28       1.0  0.5037847768794067  0.033743146936132  0.49474881843683266  1.0000
  C   C29       1.0  0.5066254330700701  0.11280981039917039  0.4946279867008344  1.0000
  C   C30       1.0  0.580209711589049  0.15416392944903373  0.4930279807868062  1.0000
  C   C31       1.0  0.5758651258988793  0.23209658358698695  0.49401783756964346  1.0000
  C   C32       1.0  0.5019557167267693  0.26987718142174083  0.4968607500135179  1.0000
  C   C33       1.0  0.4295987871636128  0.2289398530904521  0.4980334353181633  1.0000
  C   C34       1.0  0.4318534589696412  0.15153465304076255  0.4967454637356995  1.0000
  C   C35       1.0  0.4994215406020572  0.504766012237816  0.7429860761082879  1.0000
  C   C36       1.0  0.49451543085947247  0.5047526593743612  0.6419349623403364  1.0000
  C   C37       1.0  0.5688539572565221  0.5043466991601091  0.7151551841629954  1.0000
  C   C38       1.0  0.42399455682807746  0.5067404504790999  0.669583967908082  1.0000
  C   C39       1.0  0.5665220732537506  0.503934720185825  0.6671256596439934  1.0000
  C   C40       1.0  0.4262969920112951  0.50660482779827  0.7180423843307225  1.0000
  C   C41       1.0  0.6606745284328569  0.5025710102352008  0.7166345913484452  1.0000
  C   C42       1.0  0.6579691115908872  0.5020249060686479  0.6620769693343007  1.0000
  C   C43       1.0  0.5045899809049885  0.5031825780906443  0.0256613023908869  1.0000
  C   C44       1.0  0.43268143459243186  0.5058567849388211  0.051607753474229405  1.0000
  C   C45       1.0  0.4356096264483398  0.5028728295547964  0.09934640495516331  1.0000
  C   C46       1.0  0.5107440245544695  0.4978413836473193  0.12245328456489092  1.0000
  C   C47       1.0  0.5839396436400505  0.4958532526946299  0.09628610450972991  1.0000
  C   C48       1.0  0.5789229575511499  0.4983314971308417  0.048239331932613504  1.0000
  C   C49       1.0  0.5085463942767774  0.495790924687519  0.17125162714020806  1.0000
  C   C50       1.0  0.501665549621805  0.495160828912489  0.21342966153495277  1.0000
  C   C51       1.0  0.4981106771130257  0.49545063817303253  0.2622174873291527  1.0000
  C   C52       1.0  0.42401192785243313  0.4927456158248091  0.2875342012915141  1.0000
  C   C53       1.0  0.42745504224752306  0.4932788282323273  0.33566656782139864  1.0000
  C   C54       1.0  0.5010315346334837  0.4971337202316518  0.3591148468195017  1.0000
  C   C55       1.0  0.5737770138108332  0.5005943261326138  0.3340194000497122  1.0000
  C   C56       1.0  0.5724542631891653  0.49937774584434885  0.2862115817513953  1.0000
  C   C57       1.0  0.750403552274733  0.5484107028561809  0.857619161321246  1.0000
  C   C58       1.0  0.834302595722221  0.5503097090502393  0.8580718702470523  1.0000
  C   C59       1.0  0.8766752344872161  0.5027523027756189  0.8882467785195732  1.0000
  C   C60       1.0  0.8317965058792184  0.4546068442932238  0.9174254887378483  1.0000
  C   C61       1.0  0.7472911841966265  0.45706110948911044  0.9142476419607777  1.0000
  C   C62       1.0  0.9625090061941962  0.5041005537654184  0.8873508999364577  1.0000
  C   C63       1.0  0.03645642024148539  0.506615395827154  0.8843602440953264  1.0000
  C   C64       1.0  0.12226066778406157  0.5064114612227185  0.8823143417262076  1.0000
  C   C65       1.0  0.1674797634583669  0.5563452963888835  0.8544398617895939  1.0000
  C   C66       1.0  0.2519936993623944  0.5510693153765587  0.8562074905631436  1.0000
  C   C67       1.0  0.24823779181923564  0.45348440527510536  0.908694825357131  1.0000
  C   C68       1.0  0.1642579344709603  0.4537662618576873  0.9093053736574606  1.0000
  C   C69       1.0  0.4980173527249647  0.7321131418025075  0.8829379788854725  1.0000
  C   C70       1.0  0.42648261273959065  0.7743321984951874  0.880884688928653  1.0000
  C   C71       1.0  0.4300864924126203  0.851696373040582  0.882340815931052  1.0000
  C   C72       1.0  0.5053273851594043  0.8890742899660324  0.885683787011736  1.0000
  C   C73       1.0  0.5781423058669901  0.8464087008691124  0.8872528199286834  1.0000
  C   C74       1.0  0.5725001288564259  0.7685924053493167  0.8859799730995592  1.0000
  C   C75       1.0  0.5036486008136761  0.9681577220165067  0.8872500166241013  1.0000
  C   C76       1.0  0.4970132232609927  0.036467099174444684  0.8887082550821221  1.0000
  C   C77       1.0  0.49344625537941067  0.11553365996963547  0.8895956092103959  1.0000
  C   C78       1.0  0.41935269761486177  0.15636190658693744  0.8919681050509427  1.0000
  C   C79       1.0  0.42263636661395754  0.23434489343994605  0.8917364641072539  1.0000
  C   C80       1.0  0.4960185922464646  0.2727231735617437  0.8889402174201566  1.0000
  C   C81       1.0  0.5688424638483272  0.23231407741661766  0.8869918425960109  1.0000
  C   C82       1.0  0.567660600126338  0.15486361583941738  0.8875268168395395  1.0000
  C   C83       1.0  0.13040483397185207  0.39781352685153587  0.4329857520240737  1.0000
  C   C84       1.0  0.8629186263793686  0.6066012922859655  0.5684658292278115  1.0000
  C   C85       1.0  0.3355069304320253  0.8781184644588932  0.4924839482477027  1.0000
  C   C86       1.0  0.6646035455338436  0.12183821282872738  0.4903631586803528  1.0000
  C   C87       1.0  0.6685784265662561  0.49158206316187847  0.11560245985388211  1.0000
  C   C88       1.0  0.33995607293991265  0.489975500974026  0.2672585539491551  1.0000
  C   C89       1.0  0.8658109435934592  0.39840829473405387  0.9508156852295216  1.0000
  C   C90       1.0  0.13442729075957524  0.6152857170719342  0.8224420639354195  1.0000
  C   C91       1.0  0.663052732191133  0.8771624738480027  0.8901295316005999  1.0000
  C   C92       1.0  0.3354106696829079  0.12336610336226529  0.8948789682348492  1.0000
  N   N1        1.0  0.29016549770023664  0.49818100132078763  0.49930965318200293  1.0000
  N   N2        1.0  0.7068364402975078  0.49970599164910817  0.5032867300420634  1.0000
  N   N3        1.0  0.708002447411552  0.5024024575883815  0.8852951862391124  1.0000
  N   N4        1.0  0.2910156758524352  0.501982793178577  0.8828855482696201  1.0000
  O   O1        1.0  0.5665229737876132  0.6143302881017546  0.5082060068181491  1.0000
  O   O2        1.0  0.43186008406657816  0.6125320221402788  0.4924146261348243  1.0000
  O   O3        1.0  0.4280202986364046  0.5139931497837722  0.5695168818092426  1.0000
  O   O4        1.0  0.5630028403095864  0.4900260140594454  0.5712773412462441  1.0000
  O   O5        1.0  0.4322839221782502  0.38456368644471434  0.5069838964058136  1.0000
  O   O6        1.0  0.5675959737637302  0.387089625041817  0.49242985181690113  1.0000
  O   O7        1.0  0.568901418904332  0.5108395608806048  0.4305491333646927  1.0000
  O   O8        1.0  0.43415386256349103  0.4851776737112416  0.43088344493292413  1.0000
  O   O9        1.0  0.426503921594005  0.6177322226324051  0.876715953002787  1.0000
  O   O10       1.0  0.56254754964192  0.6144742779539527  0.8878287754878897  1.0000
  O   O11       1.0  0.5739470529217526  0.5122723599325382  0.8119013363671855  1.0000
  O   O12       1.0  0.4390989768267772  0.4891063052059792  0.8168207824382281  1.0000
  O   O13       1.0  0.5640761016232149  0.38760352170208273  0.8781432900796136  1.0000
  O   O14       1.0  0.4298664363651383  0.38983923493194067  0.8959536618021033  1.0000
  O   O15       1.0  0.4337994689018672  0.5176738222675326  0.9553434225132239  1.0000
  O   O16       1.0  0.5686264117896868  0.49221507850528917  0.9528294243784572  1.0000
  O   O17       1.0  0.052681297451933104  0.4083278999560632  0.4192322375350487  1.0000
  O   O18       1.0  0.1705468798978984  0.3463779084969331  0.4176537212048786  1.0000
  O   O19       1.0  0.9424517572439869  0.624853979809437  0.5659305120312796  1.0000
  O   O20       1.0  0.8192745716987845  0.6344897493041372  0.5978296084254353  1.0000
  O   O21       1.0  0.3278095851469658  0.9532548116995939  0.4881413076504303  1.0000
  O   O22       1.0  0.2751115082415225  0.8390434838953736  0.493863381157155  1.0000
  O   O23       1.0  0.6731177136533545  0.046415046943920395  0.4899618119858361  1.0000
  O   O24       1.0  0.7245791252146675  0.16147722846744725  0.48860242305221396  1.0000
  O   O25       1.0  0.6772966925194626  0.48475253851862715  0.16194994058564305  1.0000
  O   O26       1.0  0.7284404333072418  0.4939663975782691  0.09084711733634523  1.0000
  O   O27       1.0  0.3326973736093919  0.484104568501813  0.22074327853184175  1.0000
  O   O28       1.0  0.27935276992974417  0.4927596397337268  0.2914140336596844  1.0000
  O   O29       1.0  0.9433111291428703  0.407477195641249  0.9652554664146324  1.0000
  O   O30       1.0  0.8250652848391482  0.3465836969680822  0.9646529817753164  1.0000
  O   O31       1.0  0.0535060008335861  0.6286121479696334  0.8230439498950306  1.0000
  O   O32       1.0  0.17887118126380847  0.6503437045933325  0.7969560116473888  1.0000
  O   O33       1.0  0.6725673917048879  0.9521816511869049  0.8943610402210569  1.0000
  O   O34       1.0  0.7225170915397  0.8366563008850106  0.888803357091895  1.0000
  O   O35       1.0  0.3279055657330971  0.0478919341098134  0.8950866626269375  1.0000
  O   O36       1.0  0.2749451379469294  0.16252499348890131  0.8970908414906307  1.0000
  F   F1        1.0  0.3491359543445541  0.5080255450658341  0.6505996319787997  1.0000
  F   F2        1.0  0.35348696946194014  0.508884115658965  0.7397382250897095  1.0000
