data_image0
_chemical_formula_structural       Cu2H36C20S4O12
_chemical_formula_sum              "Cu2 H36 C20 S4 O12"
_cell_length_a       4.947187341558972
_cell_length_b       8.948508827442282
_cell_length_c       16.009970531142297
_cell_angle_alpha    103.49098855718839
_cell_angle_beta     89.99974347771455
_cell_angle_gamma    89.99838824896129

_space_group_name_H-M_alt    "P 1"
_space_group_IT_number       1

loop_
  _space_group_symop_operation_xyz
  'x, y, z'

loop_
  _atom_site_type_symbol
  _atom_site_label
  _atom_site_symmetry_multiplicity
  _atom_site_fract_x
  _atom_site_fract_y
  _atom_site_fract_z
  _atom_site_occupancy
  Cu  Cu1       1.0  0.49999244013168453  0.49999214478035736  2.536561794407687e-06  1.0000
  Cu  Cu2       1.0  0.9999962149139849  0.9999971681262422  0.9999967746956104  1.0000
  H   H1        1.0  0.9410064551708573  0.4125809826293505  0.06453233223403743  1.0000
  H   H2        1.0  0.4409974743838916  0.08741869883881041  0.9354687022086807  1.0000
  H   H3        1.0  0.058987738633817295  0.5874057081879231  0.9354686237689338  1.0000
  H   H4        1.0  0.5590027831352984  0.9125819015742282  0.06452916910154737  1.0000
  H   H5        1.0  0.7648268364393758  0.26406410017634846  0.1385106644904255  1.0000
  H   H6        1.0  0.2648071745728942  0.23593858560894895  0.8614897693603114  1.0000
  H   H7        1.0  0.23518554954344492  0.7359214113097536  0.8614913786660311  1.0000
  H   H8        1.0  0.7351910614997622  0.7640654471420661  0.13850919857561916  1.0000
  H   H9        1.0  0.5038680304975003  0.5698741999495313  0.23055219814549596  1.0000
  H   H10       1.0  0.0038497315212637994  0.9301211902059093  0.7694486122924078  1.0000
  H   H11       1.0  0.4961403127040994  0.4301160733719627  0.7694436284788609  1.0000
  H   H12       1.0  0.9961545686489898  0.0698804841387002  0.23055253000597287  1.0000
  H   H13       1.0  0.5093701708748597  0.401096471998045  0.2716250283066302  1.0000
  H   H14       1.0  0.009341203438658898  0.0989093171051394  0.7283786725749837  1.0000
  H   H15       1.0  0.49063615071474936  0.5989016647966638  0.7283793755483574  1.0000
  H   H16       1.0  0.9906570327874458  0.9010889700605561  0.27161950532005363  1.0000
  H   H17       1.0  0.024381966840501  0.5516843607366795  0.22179158344128075  1.0000
  H   H18       1.0  0.5243692119455404  0.9483106379762632  0.7782110197251343  1.0000
  H   H19       1.0  0.9756223333258659  0.44831729857765623  0.7782101814545683  1.0000
  H   H20       1.0  0.47563306701241714  0.0516865000382438  0.22178700015433617  1.0000
  H   H21       1.0  0.0034118464472782995  0.40383708577169847  0.2795356621728331  1.0000
  H   H22       1.0  0.503385687641881  0.09616410221273239  0.7204717866528015  1.0000
  H   H23       1.0  0.9966005390138193  0.5961679607044843  0.7204690671226573  1.0000
  H   H24       1.0  0.49661861245922967  0.9038398403054516  0.279530916856885  1.0000
  H   H25       1.0  0.49476842867154847  0.5784504999185957  0.4174941183829973  1.0000
  H   H26       1.0  0.9947920778064373  0.9215746288499888  0.5825057520222147  1.0000
  H   H27       1.0  0.5052116152995011  0.4215512046912977  0.5825057787648049  1.0000
  H   H28       1.0  0.005220307202804999  0.07845022316119811  0.4174904566577809  1.0000
  H   H29       1.0  0.7265579485786872  0.6648749303063751  0.500196471796528  1.0000
  H   H30       1.0  0.2265805838650365  0.8351455483448476  0.499802493241802  1.0000
  H   H31       1.0  0.27342007407247587  0.33512562520352424  0.49980326734679187  1.0000
  H   H32       1.0  0.7734257371115162  0.16487810950964393  0.5001954252335353  1.0000
  H   H33       1.0  0.7788900572110152  0.4706249537317363  0.4416521536482208  1.0000
  H   H34       1.0  0.27891551642396445  0.0293936420252123  0.5583479503918697  1.0000
  H   H35       1.0  0.2210879653519555  0.5293790641596204  0.5583474369221622  1.0000
  H   H36       1.0  0.721106975441529  0.9706265382810527  0.44165073922430054  1.0000
  C   C1        1.0  0.3585748779482287  0.30837968479814754  0.10602024767332104  1.0000
  C   C2        1.0  0.858523228687659  0.19161550773647212  0.8939859017739168  1.0000
  C   C3        1.0  0.6414314439634338  0.6916057515877725  0.8939849084815991  1.0000
  C   C4        1.0  0.1414689433258616  0.808389764364435  0.10600948859644894  1.0000
  C   C5        1.0  0.6364522927357114  0.3649538441573342  0.14022065587823826  1.0000
  C   C6        1.0  0.1364338103976692  0.13504514293822467  0.859784438389582  1.0000
  C   C7        1.0  0.3635580719042935  0.6350316974063759  0.8597801420869688  1.0000
  C   C8        1.0  0.8635664470562572  0.8649577406786692  0.14021437153447647  1.0000
  C   C9        1.0  0.6194980292070723  0.46547746124960554  0.23175066677920603  1.0000
  C   C10       1.0  0.11948598208302741  0.034519618981889294  0.7682498153082591  1.0000
  C   C11       1.0  0.3805103139020929  0.534514990063826  0.7682504566412973  1.0000
  C   C12       1.0  0.8805142753670198  0.965483249604731  0.23174961721327497  1.0000
  C   C13       1.0  0.902374629666966  0.5065696827532307  0.26787506475532313  1.0000
  C   C14       1.0  0.40237379420692315  0.9934213683035724  0.7321208680772174  1.0000
  C   C15       1.0  0.09762967055690551  0.4934296632967021  0.7321270067216403  1.0000
  C   C16       1.0  0.5976284846282738  0.006580366179193201  0.2678777838349617  1.0000
  C   C17       1.0  0.7080186003366506  0.5846016239912687  0.4371334268815589  1.0000
  C   C18       1.0  0.2080463410802622  0.9154203016746223  0.5628663865824778  1.0000
  C   C19       1.0  0.29195740090643335  0.41540124480008705  0.5628660056843416  1.0000
  C   C20       1.0  0.7919680653063709  0.0846033861721693  0.43713028668312154  1.0000
  S   S1        1.0  0.9160929758846449  0.659657848327747  0.3639274695363782  1.0000
  S   S2        1.0  0.41610538801315033  0.8403638919805303  0.6360770374841425  1.0000
  S   S3        1.0  0.0838850467358299  0.3403438562992136  0.6360724276151262  1.0000
  S   S4        1.0  0.583894869276051  0.15964596149011365  0.36391960750161456  1.0000
  O   O1        1.0  0.25617209637757543  0.3695031959588775  0.04570323577796392  1.0000
  O   O2        1.0  0.7561672392958769  0.1304890983588507  0.9543039014040957  1.0000
  O   O3        1.0  0.7438220974919928  0.6304799422952881  0.9543016043827848  1.0000
  O   O4        1.0  0.2438269543405481  0.8695058166411516  0.04569068948643466  1.0000
  O   O5        1.0  0.23458549523778058  0.2119222214528023  0.13547220714679045  1.0000
  O   O6        1.0  0.7345697062788473  0.2880842568355035  0.8645356599367562  1.0000
  O   O7        1.0  0.7654147628024005  0.7880563052516436  0.8645326235676265  1.0000
  O   O8        1.0  0.26543055125161896  0.7119151193091042  0.13546516635265962  1.0000
  O   O9        1.0  0.7563548581099013  0.4545600915245345  0.08495375065053426  1.0000
  O   O10       1.0  0.25636044897503035  0.0454253800687141  0.9150493248073063  1.0000
  O   O11       1.0  0.24363731447083134  0.5454220178718217  0.9150459507259471  1.0000
  O   O12       1.0  0.743635765839123  0.954575205348178  0.08494916910778735  1.0000
