data_image0
_chemical_formula_structural       Zn16H28C96S16O60F4
_chemical_formula_sum              "Zn16 H28 C96 S16 O60 F4"
_cell_length_a       19.666698818936283
_cell_length_b       19.71774886149876
_cell_length_c       33.3662000945111
_cell_angle_alpha    79.02419394339293
_cell_angle_beta     79.17456948428199
_cell_angle_gamma    63.94334351122674

_space_group_name_H-M_alt    "P 1"
_space_group_IT_number       1

loop_
  _space_group_symop_operation_xyz
  'x, y, z'

loop_
  _atom_site_type_symbol
  _atom_site_label
  _atom_site_symmetry_multiplicity
  _atom_site_fract_x
  _atom_site_fract_y
  _atom_site_fract_z
  _atom_site_occupancy
  Zn  Zn1       1.0  0.0560974043677689  0.400568938386968  0.4783869302317568  1.0000
  Zn  Zn2       1.0  0.9845010428149265  0.48365811958798594  0.5605720663349487  1.0000
  Zn  Zn3       1.0  0.058517339263836704  0.5614441388519043  0.48231380622366515  1.0000
  Zn  Zn4       1.0  0.9003951446872235  0.5552490578765519  0.47963763607948806  1.0000
  Zn  Zn5       1.0  0.6947950298249239  0.34961619041719433  0.2711301717441899  1.0000
  Zn  Zn6       1.0  0.6893103650588586  0.19027711729496838  0.2664477858902217  1.0000
  Zn  Zn7       1.0  0.76944278497632  0.26615052211360546  0.1899711426265895  1.0000
  Zn  Zn8       1.0  0.8484226098812754  0.19505297858110293  0.2725668463216735  1.0000
  Zn  Zn9       1.0  0.26656901440260583  0.766870181680844  0.6896877100061473  1.0000
  Zn  Zn10      1.0  0.3487726637120971  0.695947205604263  0.7719805355124477  1.0000
  Zn  Zn11      1.0  0.19263001835223295  0.8477385575113705  0.771641218762518  1.0000
  Zn  Zn12      1.0  0.19109108025333651  0.687650278829331  0.7669367208177107  1.0000
  Zn  Zn13      1.0  0.5605979826153983  0.05992228113516524  0.9832531095445988  1.0000
  Zn  Zn14      1.0  0.4011022885900529  0.05516315051568915  0.9781448422957056  1.0000
  Zn  Zn15      1.0  0.5546963042677717  0.901649258934292  0.9781789666457924  1.0000
  Zn  Zn16      1.0  0.4838508982470698  0.9830105700871173  0.060380770209128805  1.0000
  H   H1        1.0  0.9539504057888166  0.24899785169967006  0.3514801457639222  1.0000
  H   H2        1.0  0.7467989047552307  0.4552030132150622  0.3508535463336315  1.0000
  H   H3        1.0  0.00043190079394150004  0.2985212031294894  0.3995565833842178  1.0000
  H   H4        1.0  0.09739218674157969  0.5970777923072959  0.7000525819664815  1.0000
  H   H5        1.0  0.20157206850461756  0.7014305848561904  0.5971995454427487  1.0000
  H   H6        1.0  0.050310663634739704  0.5504908972646306  0.6507234281894227  1.0000
  H   H7        1.0  0.4627086904544413  0.24064561556221536  0.3412387319710035  1.0000
  H   H8        1.0  0.4798374881952014  0.7023618281293268  0.6012834791484423  1.0000
  H   H9        1.0  0.2022950186335635  0.9800663276027636  0.601454257994085  1.0000
  H   H10       1.0  0.9484556696271226  0.9697531212996471  0.3481757050168567  1.0000
  H   H11       1.0  0.5499538673824064  0.05011256047774993  0.1530274671190169  1.0000
  H   H12       1.0  0.6527946458655622  0.15290581312446244  0.04871724629543912  1.0000
  H   H13       1.0  0.5991414602664946  0.09909495275418584  0.1999666646563156  1.0000
  H   H14       1.0  0.5478995644502973  0.7695369380226542  0.1485029348819608  1.0000
  H   H15       1.0  0.16240826132967356  0.14138774610651694  0.040737486937573  1.0000
  H   H16       1.0  0.5012320994450621  0.7957235798128509  0.8986011630655568  1.0000
  H   H17       1.0  0.2952127132523401  0.0031489054262082185  0.8991508595178601  1.0000
  H   H18       1.0  0.4506669961063423  0.7503865699593039  0.8504849512661606  1.0000
  H   H19       1.0  0.30101414506964363  0.28044988833046613  0.9018444116247437  1.0000
  H   H20       1.0  0.787666455480391  0.009081502235005654  0.9087125430224318  1.0000
  H   H21       1.0  0.3256901528109212  0.5423576233532261  0.3984619206423901  1.0000
  H   H22       1.0  0.756257920604547  0.5396543623828477  0.6846176976954013  1.0000
  H   H23       1.0  0.040149651968072  0.25606839175663515  0.6841467991447701  1.0000
  H   H24       1.0  0.7428053175625848  0.8156083394273143  0.3880195956301762  1.0000
  H   H25       1.0  0.710348252188581  0.49315421142256355  0.06570678355554799  1.0000
  H   H26       1.0  0.1487449463063442  0.07555160320652017  0.22081769128833878  1.0000
  H   H27       1.0  0.5071517694015953  0.4338946131093736  0.8620248173182786  1.0000
  H   H28       1.0  0.9238656992521684  0.7070101346952671  0.8518787283319894  1.0000
  C   C1        1.0  0.06147471818602671  0.3165268091890355  0.5621189046022721  1.0000
  C   C2        1.0  0.06916493864473242  0.5701752492582629  0.5689362543410681  1.0000
  C   C3        1.0  0.1837361959114858  0.440470819704345  0.4385176751160955  1.0000
  C   C4        1.0  0.9360605519359668  0.6843857364459536  0.4386850152843778  1.0000
  C   C5        1.0  0.9311223787986549  0.4303459333235865  0.4311970434026831  1.0000
  C   C6        1.0  0.8167665245667521  0.5609804051087296  0.5626744783359143  1.0000
  C   C7        1.0  0.5658469265193915  0.31131198336973404  0.31116303638111725  1.0000
  C   C8        1.0  0.6813722132512225  0.18052940333157605  0.180831115436547  1.0000
  C   C9        1.0  0.6898083496100328  0.4332857081149229  0.18772775987370946  1.0000
  C   C10       1.0  0.9358303872219552  0.1873588684397164  0.189902246903614  1.0000
  C   C11       1.0  0.8188205582263919  0.3200876081274375  0.3195568792490775  1.0000
  C   C12       1.0  0.8111690064461995  0.06623840666273403  0.31153716264321213  1.0000
  C   C13       1.0  0.4335571876036822  0.6895485545688944  0.6883066029384108  1.0000
  C   C14       1.0  0.31837306224680617  0.8200255632164968  0.8190818094818582  1.0000
  C   C15       1.0  0.1885659013868306  0.9335632433098837  0.6883827941706641  1.0000
  C   C16       1.0  0.06555806731500267  0.8088677227367288  0.8112206565734892  1.0000
  C   C17       1.0  0.18119089617921696  0.680231038026058  0.6805535286122576  1.0000
  C   C18       1.0  0.3138358073837964  0.5656089368384016  0.8114285245093171  1.0000
  C   C19       1.0  0.43824009260206503  0.18386256848265262  0.9386230221627869  1.0000
  C   C20       1.0  0.4305578482006069  0.930519683118114  0.9305458458758692  1.0000
  C   C21       1.0  0.6839486950843465  0.9390322760185867  0.9386294989347801  1.0000
  C   C22       1.0  0.5613194999006197  0.8161335043796356  0.0615155737862807  1.0000
  C   C23       1.0  0.5695348968733924  0.06941223715348602  0.06943677438002274  1.0000
  C   C24       1.0  0.31600275076051787  0.06147930662153563  0.061138743660130494  1.0000
  C   C25       1.0  0.9008305861390155  0.40367705883966937  0.402278827564551  1.0000
  C   C26       1.0  0.8476168202333838  0.34875444246456766  0.3481496907345941  1.0000
  C   C27       1.0  0.8292952260047884  0.44662783335920136  0.38782179993571475  1.0000
  C   C28       1.0  0.9193090118831366  0.3045320764892593  0.3619146870301577  1.0000
  C   C29       1.0  0.802544271120425  0.4201969253222019  0.3612358219432039  1.0000
  C   C30       1.0  0.9449615224675441  0.3320090688507522  0.3885185820070731  1.0000
  C   C31       1.0  0.0989158396570318  0.5992940255570363  0.5968352200248858  1.0000
  C   C32       1.0  0.15236553109670578  0.6520279566543652  0.6517930020073307  1.0000
  C   C33       1.0  0.141955533794949  0.6421089840861925  0.5826610819255862  1.0000
  C   C34       1.0  0.10959772335540659  0.609414106346236  0.666961975963396  1.0000
  C   C35       1.0  0.16849198952974836  0.6683998270509406  0.6094034041551666  1.0000
  C   C36       1.0  0.0835663973238283  0.583713402647696  0.6396748147817704  1.0000
  C   C37       1.0  0.30434608595189877  0.4557535216182347  0.4010143105896161  1.0000
  C   C38       1.0  0.4459018534829369  0.29736172508919634  0.34906431389737236  1.0000
  C   C39       1.0  0.2584222160947718  0.4162406409133865  0.413891876195585  1.0000
  C   C40       1.0  0.4912168516524105  0.3366654489747277  0.33628040005084603  1.0000
  C   C41       1.0  0.3778300599828199  0.340405679117005  0.3726669311190278  1.0000
  C   C42       1.0  0.37270197341563005  0.41200904184279374  0.3773945252605627  1.0000
  C   C43       1.0  0.7265377899649578  0.5754515878603644  0.6304863118338204  1.0000
  C   C44       1.0  0.5244496640983557  0.6734116220154153  0.6214138005816564  1.0000
  C   C45       1.0  0.7426587134858523  0.5851634613579435  0.5877690446580317  1.0000
  C   C46       1.0  0.508615730161381  0.6638772235079317  0.6637520815840644  1.0000
  C   C47       1.0  0.6037263186075421  0.6412960599868285  0.6091208560184995  1.0000
  C   C48       1.0  0.6467928419359695  0.6077707506673067  0.6425745887180412  1.0000
  C   C49       1.0  0.0757864336503928  0.22631197532522412  0.6300870034480681  1.0000
  C   C50       1.0  0.17345142175734907  0.02456362762072931  0.6214855683157124  1.0000
  C   C51       1.0  0.0855539561642402  0.2424386090761601  0.5873261169881943  1.0000
  C   C52       1.0  0.16369297832684992  0.008679681494911095  0.6638350180158383  1.0000
  C   C53       1.0  0.1414960960719682  0.1036925361925327  0.609048150976335  1.0000
  C   C54       1.0  0.10796110837142692  0.14668525580180616  0.6423749282164977  1.0000
  C   C55       1.0  0.8417620789740353  0.8008456819738401  0.3971602295325738  1.0000
  C   C56       1.0  0.9039276444299772  0.9495721061438545  0.35260098355109903  1.0000
  C   C57       1.0  0.9107356106647515  0.758554131295753  0.4136448221335911  1.0000
  C   C58       1.0  0.835503082880905  0.9913796579519315  0.3363261764682903  1.0000
  C   C59       1.0  0.906599692660535  0.8800488965231497  0.37470928797181097  1.0000
  C   C60       1.0  0.8397383091896627  0.8704100576778802  0.3748314991025765  1.0000
  C   C61       1.0  0.6531921613199004  0.15297294493683486  0.15131886152425267  1.0000
  C   C62       1.0  0.5981738047224141  0.09827250486479501  0.09799912588420057  1.0000
  C   C63       1.0  0.6672653941241362  0.16725168407123198  0.10831152143884991  1.0000
  C   C64       1.0  0.5830046098901535  0.08314394013043368  0.1407437007034105  1.0000
  C   C65       1.0  0.6405337940672313  0.1406318518466776  0.08180313689593527  1.0000
  C   C66       1.0  0.6102824495507376  0.11028775840699735  0.16670402638407467  1.0000
  C   C67       1.0  0.6746352927163386  0.5233728818161083  0.11970573202354023  1.0000
  C   C68       1.0  0.5767170420357245  0.7251035037011347  0.1284249703524623  1.0000
  C   C69       1.0  0.6649178295932286  0.5072639633946567  0.16247663942327512  1.0000
  C   C70       1.0  0.586404160773533  0.7410713617901623  0.08608007463862319  1.0000
  C   C71       1.0  0.6086430080305617  0.6459554784183795  0.14079692793460197  1.0000
  C   C72       1.0  0.6422247282485926  0.6030137141734714  0.10744123381078201  1.0000
  C   C73       1.0  0.08265373807726209  0.12315960179313379  0.17870847789256317  1.0000
  C   C74       1.0  0.17026860349387363  0.1247136630034476  0.0731174612377714  1.0000
  C   C75       1.0  0.0105149292646729  0.16223527840594448  0.16538926087042677  1.0000
  C   C76       1.0  0.24166543244415098  0.08600306229767099  0.08641845834888778  1.0000
  C   C77       1.0  0.1121299978279353  0.1384219918052736  0.1065923539289315  1.0000
  C   C78       1.0  0.1406976275709653  0.10965987981029461  0.14487548667236178  1.0000
  C   C79       1.0  0.34556368628140177  0.8501537187296297  0.8477776567550492  1.0000
  C   C80       1.0  0.40159389774485277  0.9021317153994775  0.9019122591255951  1.0000
  C   C81       1.0  0.30298306800560937  0.9214452881940861  0.862162673766271  1.0000
  C   C82       1.0  0.44550858974463386  0.8306817265610531  0.8881768016872017  1.0000
  C   C83       1.0  0.329961002270906  0.9476016599647185  0.888770838427881  1.0000
  C   C84       1.0  0.41748353049607084  0.8056355787954743  0.8615437105860765  1.0000
  C   C85       1.0  0.4081165701658449  0.44897443875036924  0.8528757032343959  1.0000
  C   C86       1.0  0.3456236785104564  0.30050886750890293  0.8974491115843506  1.0000
  C   C87       1.0  0.3392270485486648  0.49128390043330233  0.8363018228560009  1.0000
  C   C88       1.0  0.4139632445588007  0.2586567822619301  0.9137799581048256  1.0000
  C   C89       1.0  0.3431995193166202  0.3698462430201274  0.875211967402336  1.0000
  C   C90       1.0  0.4101115984248693  0.3793783877144252  0.875130089376796  1.0000
  C   C91       1.0  0.9451696234671233  0.7936701950817097  0.8490578319275457  1.0000
  C   C92       1.0  0.8042139634854736  0.9523892168995761  0.9009303951744342  1.0000
  C   C93       1.0  0.9911551149018436  0.8330529258444345  0.8360376573494435  1.0000
  C   C94       1.0  0.7586661972647377  0.9133492489787688  0.9137229998646105  1.0000
  C   C95       1.0  0.8721715351740046  0.9090814469133054  0.8773597015140381  1.0000
  C   C96       1.0  0.876993371254116  0.8375343028628283  0.8727265925385197  1.0000
  S   S1        1.0  0.2989041939132875  0.32645575158258583  0.3972311535489935  1.0000
  S   S2        1.0  0.45154534165141064  0.426309755710108  0.3528293779550181  1.0000
  S   S3        1.0  0.6608895544424129  0.6332566676531854  0.5627735703880035  1.0000
  S   S4        1.0  0.5898353866617896  0.6157223411175966  0.6890683116343225  1.0000
  S   S5        1.0  0.13358285031241482  0.16074385841334754  0.5625880342604005  1.0000
  S   S6        1.0  0.11561460434428741  0.08974782356549584  0.6889640421759253  1.0000
  S   S7        1.0  0.9722633751215781  0.8037090922341934  0.4018504874775672  1.0000
  S   S8        1.0  0.7737716197866221  0.9466794061912157  0.3477221518913182  1.0000
  S   S9        1.0  0.6165238428075811  0.5889013021056403  0.18724318679788607  1.0000
  S   S10       1.0  0.6344519013590854  0.6600640440767622  0.06089227677478699  1.0000
  S   S11       1.0  0.014012678678227503  0.18211621002333803  0.1119753195318225  1.0000
  S   S12       1.0  0.23888507199382053  0.0658188862829263  0.1396924764006968  1.0000
  S   S13       1.0  0.27769341870860836  0.4461423310169793  0.8479769443415179  1.0000
  S   S14       1.0  0.4759299571902744  0.3031031545143533  0.9023134020732826  1.0000
  S   S15       1.0  0.9511129046366731  0.922815426719119  0.8526828311390702  1.0000
  S   S16       1.0  0.7979819560025446  0.8236198925336284  0.8973105919647466  1.0000
  O   O1        1.0  0.0004441771430449998  0.49908928484371273  0.5001745423507558  1.0000
  O   O2        1.0  0.07788223824093882  0.31527571575241353  0.5230650566107542  1.0000
  O   O3        1.0  0.031912076347481395  0.531203215546583  0.586521914690742  1.0000
  O   O4        1.0  0.1548798842370118  0.5068916138021322  0.4495824390372221  1.0000
  O   O5        1.0  0.026689230278293504  0.3752102259371669  0.5810477235385676  1.0000
  O   O6        1.0  0.1541369059053821  0.39212629344873323  0.4466255959154068  1.0000
  O   O7        1.0  0.0830673879545643  0.5864610048166768  0.5304694739771918  1.0000
  O   O8        1.0  0.0033002276193912  0.6579488682991725  0.4494102032460106  1.0000
  O   O9        1.0  0.8884275355551877  0.4947285655314746  0.44337853552479334  1.0000
  O   O10       1.0  0.8898761890583344  0.6528118325532973  0.4476639860420022  1.0000
  O   O11       1.0  0.9975379001867992  0.3856833286622319  0.4412162321134545  1.0000
  O   O12       1.0  0.8759225506761724  0.5262642993660693  0.5814686344583819  1.0000
  O   O13       1.0  0.8149543947939363  0.5773862522967976  0.5236554720067943  1.0000
  O   O14       1.0  0.7498479511810031  0.2501610291657742  0.25036696817121407  1.0000
  O   O15       1.0  0.5968107623763855  0.35827706044871405  0.30297046273172157  1.0000
  O   O16       1.0  0.6630252687632135  0.16391856567135243  0.219055107727776  1.0000
  O   O17       1.0  0.7262806655247757  0.37437488542140346  0.1690908216794185  1.0000
  O   O18       1.0  0.5927737034527071  0.24511281881938635  0.2998327309798299  1.0000
  O   O19       1.0  0.6724209373617711  0.43481807586662313  0.2267527789013144  1.0000
  O   O20       1.0  0.7209289856290013  0.21777970710524405  0.1656753940587308  1.0000
  O   O21       1.0  0.8781806832891874  0.22290393032417916  0.16950912039423116  1.0000
  O   O22       1.0  0.8621773325267483  0.25410548272078154  0.30910917675032573  1.0000
  O   O23       1.0  0.9342734224699638  0.17207210074879964  0.22888449507232173  1.0000
  O   O24       1.0  0.7534474652429494  0.36390682087606785  0.30803541446523747  1.0000
  O   O25       1.0  0.7448407648217952  0.09365626866053842  0.29970985447327075  1.0000
  O   O26       1.0  0.8581500226529144  0.09692752194618498  0.30408207833806955  1.0000
  O   O27       1.0  0.2500875619115135  0.7494046233716605  0.749934672292781  1.0000
  O   O28       1.0  0.37547895092170336  0.7247964258167844  0.6685873308973243  1.0000
  O   O29       1.0  0.36415284634686873  0.7547289942806404  0.8083043375583826  1.0000
  O   O30       1.0  0.17162374144271553  0.9332205050332619  0.7273750757295616  1.0000
  O   O31       1.0  0.43362624111352943  0.6741021768252795  0.7273542319897855  1.0000
  O   O32       1.0  0.2245612967421238  0.8757809737966941  0.6687112374014959  1.0000
  O   O33       1.0  0.2526202312582342  0.861294498406288  0.8078814376587502  1.0000
  O   O34       1.0  0.09489351724022302  0.8574524129425428  0.8032211821694303  1.0000
  O   O35       1.0  0.16574745954408598  0.6628534244481942  0.7189155529846969  1.0000
  O   O36       1.0  0.09462077583361152  0.7426786203017459  0.7998375603655389  1.0000
  O   O37       1.0  0.21888570924978268  0.7193281630840788  0.6642199198569401  1.0000
  O   O38       1.0  0.3594373639053359  0.5979031106249482  0.8033493159267378  1.0000
  O   O39       1.0  0.2471898620227577  0.5915050932933784  0.8000144623390922  1.0000
  O   O40       1.0  0.49993389167708097  5.2841762368485186e-05  0.9999970268034915  1.0000
  O   O41       1.0  0.5049119602080624  0.1561971599894463  0.9500055609708795  1.0000
  O   O42       1.0  0.3871192481848666  0.9960890249641782  0.9415909064760298  1.0000
  O   O43       1.0  0.6528203621323884  0.8921835268514827  0.94674776551237  1.0000
  O   O44       1.0  0.3910002093573155  0.15339660693776114  0.946561610849237  1.0000
  O   O45       1.0  0.6569424272029423  0.005299468288342319  0.9498645325423354  1.0000
  O   O46       1.0  0.4963410742026966  0.8867883596287529  0.9415262217147528  1.0000
  O   O47       1.0  0.5772596510046597  0.81633346140017  0.022473075818695065  1.0000
  O   O48       1.0  0.5313114550322665  0.03092845344372822  0.08588023071219199  1.0000
  O   O49       1.0  0.526100355136258  0.8740592908693334  0.08113795675991034  1.0000
  O   O50       1.0  0.5857622539729166  0.08563686954942536  0.03097673003848907  1.0000
  O   O51       1.0  0.3154592239807954  0.07783349914920731  0.022232440210373704  1.0000
  O   O52       1.0  0.37462290217619193  0.02581558423331391  0.08061664837787669  1.0000
  O   O53       1.0  0.2849330506151587  0.5265176659820058  0.4102520137303287  1.0000
  O   O54       1.0  0.7809208479606085  0.5397034311628558  0.6564200086146386  1.0000
  O   O55       1.0  0.04007572222514  0.28058163464567815  0.6558843220182807  1.0000
  O   O56       1.0  0.7851234604230726  0.7772782702866864  0.40227237617156664  1.0000
  O   O57       1.0  0.7105177007920389  0.4689859097632337  0.09404139029356878  1.0000
  O   O58       1.0  0.09417108710504608  0.10161572191246654  0.21886061153006858  1.0000
  O   O59       1.0  0.4647803017178092  0.4725314727387303  0.8479148206956068  1.0000
  O   O60       1.0  0.9644749934630921  0.7229091356188352  0.8398254674368032  1.0000
  F   F1        1.0  0.7827343321804251  0.5163618915723163  0.39919157832319035  1.0000
  F   F2        1.0  0.159750360293522  0.6597539700669871  0.5419838322674622  1.0000
  F   F3        1.0  0.707783682341116  0.20799351537947103  0.0905950821956125  1.0000
  F   F4        1.0  0.2331998599707178  0.9683279270203611  0.8506192694220189  1.0000
