data_image0
_chemical_formula_structural       Zn16H8C96S16N16O84F8
_chemical_formula_sum              "Zn16 H8 C96 S16 N16 O84 F8"
_cell_length_a       19.593569568723492
_cell_length_b       19.607284563495114
_cell_length_c       33.19417396272236
_cell_angle_alpha    79.52064961828161
_cell_angle_beta     79.56940068434133
_cell_angle_gamma    64.17254520668733

_space_group_name_H-M_alt    "P 1"
_space_group_IT_number       1

loop_
  _space_group_symop_operation_xyz
  'x, y, z'

loop_
  _atom_site_type_symbol
  _atom_site_label
  _atom_site_symmetry_multiplicity
  _atom_site_fract_x
  _atom_site_fract_y
  _atom_site_fract_z
  _atom_site_occupancy
  Zn  Zn1       1.0  0.05961849008200909  0.4021043556629493  0.4773857965969484  1.0000
  Zn  Zn2       1.0  0.9789930418529023  0.48538913422873986  0.560532540910934  1.0000
  Zn  Zn3       1.0  0.06281290189811271  0.5578478403730996  0.48179256866961845  1.0000
  Zn  Zn4       1.0  0.8983625556994782  0.5550162090764558  0.4810836495294878  1.0000
  Zn  Zn5       1.0  0.6945474899393744  0.35138393189420464  0.2691125627102053  1.0000
  Zn  Zn6       1.0  0.6927827072459963  0.1866461403173576  0.26819014241255695  1.0000
  Zn  Zn7       1.0  0.7659022806998195  0.2705263425471573  0.1896283138844197  1.0000
  Zn  Zn8       1.0  0.84754110911949  0.1908674286336804  0.2733233050074375  1.0000
  Zn  Zn9       1.0  0.26459955674911845  0.7717783199919384  0.689793545550735  1.0000
  Zn  Zn10      1.0  0.34804974155253626  0.6914742583276874  0.7727879448385193  1.0000
  Zn  Zn11      1.0  0.1937728965662586  0.8509981589363491  0.7696413250795187  1.0000
  Zn  Zn12      1.0  0.19394048953665083  0.6853432574306239  0.7681031481163315  1.0000
  Zn  Zn13      1.0  0.5640743374457244  0.056565340698440936  0.9818470606725426  1.0000
  Zn  Zn14      1.0  0.398721947129296  0.055728988740135266  0.9806816585632064  1.0000
  Zn  Zn15      1.0  0.5589668617799718  0.9022176355822393  0.977118844918955  1.0000
  Zn  Zn16      1.0  0.47879645733745224  0.9849162771969657  0.06032853343543114  1.0000
  H   H1        1.0  0.4658474924186465  0.23943130120663614  0.3384879669489749  1.0000
  H   H2        1.0  0.47483478951252067  0.7017899151886695  0.602309372892087  1.0000
  H   H3        1.0  0.20153953457469947  0.9820279151176194  0.6003800794584249  1.0000
  H   H4        1.0  0.9497094910365931  0.9670109892066847  0.3491881592587873  1.0000
  H   H5        1.0  0.5482878840650329  0.774489210290483  0.14747710952264007  1.0000
  H   H6        1.0  0.1591788006411363  0.14262872128676204  0.04137476288005361  1.0000
  H   H7        1.0  0.30311647367003763  0.2747062818183252  0.9021133211347985  1.0000
  H   H8        1.0  0.7902507507252706  0.009229602746359  0.9079799595701981  1.0000
  C   C1        1.0  0.0610518836757663  0.3194830910703105  0.5602879130996781  1.0000
  C   C2        1.0  0.0680981063615249  0.5689846437333087  0.5679449746882737  1.0000
  C   C3        1.0  0.18722636071952786  0.43858235486408137  0.4373326633404631  1.0000
  C   C4        1.0  0.9382808980353159  0.6806730270577718  0.44003892922776083  1.0000
  C   C5        1.0  0.9319036215716776  0.4312641506304118  0.4322179045421208  1.0000
  C   C6        1.0  0.8128049751710121  0.5616122219606654  0.563034091787088  1.0000
  C   C7        1.0  0.5692037139341507  0.31023980309553423  0.3102283333513539  1.0000
  C   C8        1.0  0.6819053500641772  0.18158931550706817  0.18192170845400568  1.0000
  C   C9        1.0  0.6886409537846488  0.43669771778986904  0.18695990666023482  1.0000
  C   C10       1.0  0.9312980346973987  0.18858666350744366  0.19048662712049938  1.0000
  C   C11       1.0  0.8178218782943246  0.31817378562914916  0.3183831862544152  1.0000
  C   C12       1.0  0.8119907092134822  0.06238736293557431  0.312725487317465  1.0000
  C   C13       1.0  0.43033112381655064  0.6909965661242126  0.6894862882254669  1.0000
  C   C14       1.0  0.31759867778710327  0.8186341848565276  0.8183046944622916  1.0000
  C   C15       1.0  0.18744660827577062  0.9375771955660211  0.6874745064199173  1.0000
  C   C16       1.0  0.06954527937419637  0.8091416908869817  0.8102009595975443  1.0000
  C   C17       1.0  0.1826582425114012  0.6816629257307483  0.6817037619584381  1.0000
  C   C18       1.0  0.3141431747142249  0.5621930903239943  0.812316328978923  1.0000
  C   C19       1.0  0.4395922846504589  0.1807550960117937  0.9399433314248284  1.0000
  C   C20       1.0  0.431569130247766  0.932164932679754  0.9319005984268781  1.0000
  C   C21       1.0  0.6878698284547725  0.9374458823104344  0.9374757699758546  1.0000
  C   C22       1.0  0.5600578987521843  0.8191731119910203  0.06032042350624071  1.0000
  C   C23       1.0  0.5684252788603247  0.06781021431223883  0.06815580355658568  1.0000
  C   C24       1.0  0.312319221539326  0.06263411133411272  0.06247370220143007  1.0000
  C   C25       1.0  0.9026936766035688  0.40231884392722606  0.4028472645508002  1.0000
  C   C26       1.0  0.8471597117829361  0.3473863181107006  0.34750230776985797  1.0000
  C   C27       1.0  0.831790312268545  0.44611922451861813  0.3880767298298906  1.0000
  C   C28       1.0  0.91922645413581  0.30474478649514947  0.361104920002127  1.0000
  C   C29       1.0  0.803661973853309  0.41826712042210085  0.36223573074257587  1.0000
  C   C30       1.0  0.9451536263332444  0.3304221922308699  0.3891353345545098  1.0000
  C   C31       1.0  0.0975175532259982  0.5980131422570095  0.5971654307216738  1.0000
  C   C32       1.0  0.15339061895179643  0.6525971659564361  0.6524828680183743  1.0000
  C   C33       1.0  0.1391987153323839  0.6419852608507454  0.5827061838364358  1.0000
  C   C34       1.0  0.10943858781325129  0.6109184223892256  0.6669496108231953  1.0000
  C   C35       1.0  0.1686663100236245  0.6662862180551555  0.6096419786275432  1.0000
  C   C36       1.0  0.08448989017059459  0.5820702814331966  0.6400069736965222  1.0000
  C   C37       1.0  0.3080873055452926  0.45269633023822564  0.39984581074772757  1.0000
  C   C38       1.0  0.4493366931849677  0.2958875176944887  0.3471518861607592  1.0000
  C   C39       1.0  0.2618712636605451  0.41370865594581807  0.4126618196625315  1.0000
  C   C40       1.0  0.4946316042312091  0.33568610256766357  0.33524663685683  1.0000
  C   C41       1.0  0.3816369395319796  0.33861037855800175  0.37119982012442415  1.0000
  C   C42       1.0  0.3768665124426107  0.4104707555895075  0.37647127145076087  1.0000
  C   C43       1.0  0.721757338913221  0.5776900032765439  0.6304118745787617  1.0000
  C   C44       1.0  0.520012511290119  0.6740832542767448  0.6223305161092154  1.0000
  C   C45       1.0  0.738307275903864  0.5865432342981264  0.587788584264537  1.0000
  C   C46       1.0  0.505320851295707  0.6654756523358144  0.6649053646218375  1.0000
  C   C47       1.0  0.5993036775734879  0.6425882619729818  0.6099122126070142  1.0000
  C   C48       1.0  0.642820161332338  0.609865361038949  0.6435606665899911  1.0000
  C   C49       1.0  0.07603206685836739  0.22893447192854666  0.6278251078884907  1.0000
  C   C50       1.0  0.1724531477614946  0.027161948457049306  0.6203150170803866  1.0000
  C   C51       1.0  0.08495716997810379  0.24510243236577617  0.5851749141081156  1.0000
  C   C52       1.0  0.16224874063460246  0.012571037049745834  0.6628523242244524  1.0000
  C   C53       1.0  0.14013788072611533  0.10633382841675848  0.6076727724492483  1.0000
  C   C54       1.0  0.10675350098566838  0.15006207923580211  0.6411666226072582  1.0000
  C   C55       1.0  0.8450013475020413  0.7970718472535266  0.3982171987464297  1.0000
  C   C56       1.0  0.905147967295022  0.946508249338976  0.3537436265315108  1.0000
  C   C57       1.0  0.9132609092350776  0.7551554929977511  0.41524558430266717  1.0000
  C   C58       1.0  0.8362912555546272  0.9876084217905542  0.3375522175460405  1.0000
  C   C59       1.0  0.9077088317505186  0.877227058427671  0.3762168024787725  1.0000
  C   C60       1.0  0.8406983186687709  0.8670774815833159  0.3760702855413597  1.0000
  C   C61       1.0  0.6526794214683206  0.15238435120953397  0.15269617314319822  1.0000
  C   C62       1.0  0.5974942403242807  0.09708309760630132  0.0973835704316315  1.0000
  C   C63       1.0  0.6683821147558646  0.1656410800416951  0.10985145430566935  1.0000
  C   C64       1.0  0.5840835290436034  0.08152521422707786  0.14023534260094547  1.0000
  C   C65       1.0  0.6391782589915493  0.14104313930529602  0.082923501131468  1.0000
  C   C66       1.0  0.6086417677543281  0.11075990737978  0.1671653317193672  1.0000
  C   C67       1.0  0.6726184629099521  0.5277551434607942  0.11952154584645307  1.0000
  C   C68       1.0  0.5760768139809755  0.7293944565350758  0.12745936760704515  1.0000
  C   C69       1.0  0.6635325133586746  0.5111646683152813  0.16214449726877686  1.0000
  C   C70       1.0  0.5851157589505931  0.744148993734946  0.08489401836231282  1.0000
  C   C71       1.0  0.6073905409973719  0.6501171014674013  0.13991282687283757  1.0000
  C   C72       1.0  0.6404073603730538  0.6066540829613133  0.106297845353545  1.0000
  C   C73       1.0  0.07792901470661921  0.12564049980358047  0.17879249886265566  1.0000
  C   C74       1.0  0.1667743273307281  0.12595844464306077  0.07390939414884197  1.0000
  C   C75       1.0  0.0057574354899756  0.1638013084279919  0.16569264549132606  1.0000
  C   C76       1.0  0.23798576580846023  0.08718925708526372  0.08774610125175288  1.0000
  C   C77       1.0  0.10847021763689918  0.1391919140378519  0.10731451767686909  1.0000
  C   C78       1.0  0.13714359965576514  0.11073069142670276  0.14588874521518846  1.0000
  C   C79       1.0  0.34688797531471494  0.8478803181272595  0.8474648613768279  1.0000
  C   C80       1.0  0.40234203657765016  0.9030584463227102  0.902681845810342  1.0000
  C   C81       1.0  0.3032327105614455  0.9187244685861985  0.8622283081928117  1.0000
  C   C82       1.0  0.444876738411395  0.8310952793394435  0.8890401546005647  1.0000
  C   C83       1.0  0.3313673288827416  0.9467405986021331  0.88797792232819  1.0000
  C   C84       1.0  0.41900893471847667  0.8053402500295164  0.8610204422294814  1.0000
  C   C85       1.0  0.4072824592965532  0.4453996892025529  0.854011048812232  1.0000
  C   C86       1.0  0.3470206427503443  0.29595360377700786  0.8982614324594987  1.0000
  C   C87       1.0  0.3388355000229311  0.48779440293910176  0.8372205715321  1.0000
  C   C88       1.0  0.41531479544422467  0.2554746918451727  0.9150874916496434  1.0000
  C   C89       1.0  0.34405192648348054  0.3657798496687549  0.8763675739782355  1.0000
  C   C90       1.0  0.4109613284031113  0.3759908218945895  0.8767092995572199  1.0000
  C   C91       1.0  0.9487340509438907  0.7950112467854993  0.8476508374772816  1.0000
  C   C92       1.0  0.8074059359871059  0.9520866297625473  0.9001189272744266  1.0000
  C   C93       1.0  0.9951874592984922  0.8338016154226081  0.8350860860197996  1.0000
  C   C94       1.0  0.7626119815819192  0.9118522482124759  0.9126234936810462  1.0000
  C   C95       1.0  0.8757618943913458  0.9087444552930606  0.8767462768015334  1.0000
  C   C96       1.0  0.8806441366090211  0.8367251185779307  0.8716805279533872  1.0000
  S   S1        1.0  0.3030002563202672  0.32374083405174053  0.3957111229215896  1.0000
  S   S2        1.0  0.45583109881264505  0.4249557523622867  0.35283433423173693  1.0000
  S   S3        1.0  0.6558529687814739  0.6347913817317092  0.5631910838504196  1.0000
  S   S4        1.0  0.58689951121643  0.6191408933607432  0.6902669858436639  1.0000
  S   S5        1.0  0.13165110580700906  0.16244791380935908  0.5607884627570525  1.0000
  S   S6        1.0  0.1137089790652297  0.0942848379267289  0.687916820738671  1.0000
  S   S7        1.0  0.9734935747243936  0.8019704898473705  0.404060731371409  1.0000
  S   S8        1.0  0.7742561836676388  0.9428194258141358  0.34916035747877316  1.0000
  S   S9        1.0  0.6149460217814492  0.593590261089112  0.18665717394299716  1.0000
  S   S10       1.0  0.6315849582764699  0.6626223197313834  0.05957961966721109  1.0000
  S   S11       1.0  0.0101115005217807  0.18188022339602838  0.112137316209477  1.0000
  S   S12       1.0  0.23512530867834158  0.06667453055884921  0.1411734844091797  1.0000
  S   S13       1.0  0.2777719166547925  0.4418676379529884  0.8491829427552131  1.0000
  S   S14       1.0  0.476531964135738  0.3011511242961758  0.9045372453664057  1.0000
  S   S15       1.0  0.9550194080223235  0.9230338790701891  0.8528616385264695  1.0000
  S   S16       1.0  0.8024584125761649  0.8216109790963417  0.8961232334620701  1.0000
  N   N1        1.0  0.7843982594325567  0.5249038302963809  0.3991192920433591  1.0000
  N   N2        1.0  0.9712634530385602  0.2306728336822202  0.3453622442047218  1.0000
  N   N3        1.0  0.7248802097216042  0.4658229466909134  0.3511455430693927  1.0000
  N   N4        1.0  0.019433731867430002  0.2781935503331995  0.4047112129660277  1.0000
  N   N5        1.0  0.152679998329404  0.6650940184753296  0.5377794343382405  1.0000
  N   N6        1.0  0.08662091924990278  0.597329031628149  0.711908699990168  1.0000
  N   N7        1.0  0.2182412741709783  0.7065800117393903  0.5914804614247159  1.0000
  N   N8        1.0  0.044199257759522895  0.5325102615454681  0.658294219035177  1.0000
  N   N9        1.0  0.7180576124791997  0.20580256694801602  0.09154935636458107  1.0000
  N   N10       1.0  0.5438477281952315  0.031903103251082136  0.15845288417049372  1.0000
  N   N11       1.0  0.6527069739199051  0.16391545449148015  0.037969645519140706  1.0000
  N   N12       1.0  0.5854445352690122  0.09736019749289675  0.21208855007262878  1.0000
  N   N13       1.0  0.22433618605828093  0.9662427609160105  0.8512649077897976  1.0000
  N   N14       1.0  0.5190409481672376  0.7789508564086843  0.9047736259349932  1.0000
  N   N15       1.0  0.28398477249590565  0.02547713724991506  0.8990521722869856  1.0000
  N   N16       1.0  0.47124168937858  0.7312303104685257  0.8453127957369869  1.0000
  O   O1        1.0  7.365909299750008e-05  0.499920929697261  0.5000676944854375  1.0000
  O   O2        1.0  0.0689102641698369  0.31841519681868397  0.5211156801805429  1.0000
  O   O3        1.0  0.010938108686850998  0.5543225115914154  0.5824584819729565  1.0000
  O   O4        1.0  0.15522402343024314  0.5077586667293942  0.4452276179425851  1.0000
  O   O5        1.0  0.03517575159258259  0.3781409090737994  0.5795780247118927  1.0000
  O   O6        1.0  0.16032124407261253  0.3881045152075018  0.4487534904382  1.0000
  O   O7        1.0  0.1036187293353237  0.5623013721924083  0.5319686214054541  1.0000
  O   O8        1.0  0.0008448052056592999  0.6586103522561403  0.45574404245927974  1.0000
  O   O9        1.0  0.8815810303089718  0.4814384317543626  0.4536804438922316  1.0000
  O   O10       1.0  0.8963181936039603  0.644581960456769  0.44363202374872657  1.0000
  O   O11       1.0  0.0036532179920882994  0.4023295485978692  0.43230482907684115  1.0000
  O   O12       1.0  0.8713739473695626  0.5196073458293424  0.5817782123556724  1.0000
  O   O13       1.0  0.8124578498398024  0.5843114305737487  0.524259749695382  1.0000
  O   O14       1.0  0.750043451011244  0.24984817017843156  0.2500312725606264  1.0000
  O   O15       1.0  0.6041861711406896  0.35364707537974016  0.3060385559878326  1.0000
  O   O16       1.0  0.6878539663949539  0.14637923144330492  0.21800392941217686  1.0000
  O   O17       1.0  0.7311611018717699  0.3782086864213241  0.16832317113603065  1.0000
  O   O18       1.0  0.5922465566264066  0.24745921207037472  0.29495890464222896  1.0000
  O   O19       1.0  0.6655414598409237  0.43702392008928825  0.2256857882973975  1.0000
  O   O20       1.0  0.6973712041881299  0.23821185888678542  0.16735436793438646  1.0000
  O   O21       1.0  0.8732237745784488  0.21504299992044904  0.1702880406649356  1.0000
  O   O22       1.0  0.8462995134383533  0.24641172982566673  0.3186014098187897  1.0000
  O   O23       1.0  0.9307375802340301  0.18203904429938692  0.22953878698159969  1.0000
  O   O24       1.0  0.7677699769022369  0.36836731308172665  0.2967084602573776  1.0000
  O   O25       1.0  0.7427848497574628  0.09346179743650403  0.3043355047218483  1.0000
  O   O26       1.0  0.8616688473815871  0.0900029852418242  0.3015954025469369  1.0000
  O   O27       1.0  0.2500274279240671  0.7500753467859268  0.7500737132181995  1.0000
  O   O28       1.0  0.37199746689118035  0.7179857414373316  0.669713336042079  1.0000
  O   O29       1.0  0.34686348930240035  0.7469569975242649  0.8181429474940882  1.0000
  O   O30       1.0  0.1652707513158873  0.9369194295127982  0.7262483636228436  1.0000
  O   O31       1.0  0.43059608120946535  0.6836218879748938  0.7286503239583411  1.0000
  O   O32       1.0  0.22923919903725926  0.8795980318327846  0.6682474425677752  1.0000
  O   O33       1.0  0.26683547956412207  0.8688086795834877  0.7970451417615079  1.0000
  O   O34       1.0  0.1038687075881199  0.8531350674658852  0.8067041417346558  1.0000
  O   O35       1.0  0.1903131088347365  0.6454393758330782  0.7175082565900793  1.0000
  O   O36       1.0  0.0932759824555376  0.7470131617620979  0.7942720251608433  1.0000
  O   O37       1.0  0.1965411094079599  0.7393710456597801  0.6674153174524021  1.0000
  O   O38       1.0  0.36328610345388757  0.5903018225998053  0.8005784303781238  1.0000
  O   O39       1.0  0.2446188043981721  0.5926348615037965  0.8043643039090468  1.0000
  O   O40       1.0  0.5000383554578319  0.9999899099840167  0.9999938116328833  1.0000
  O   O41       1.0  0.502605284393816  0.15709975932146136  0.9553648602774912  1.0000
  O   O42       1.0  0.38140060058439224  0.982474177224169  0.9533829379102697  1.0000
  O   O43       1.0  0.6597340360556601  0.8880099401771137  0.9487778217311555  1.0000
  O   O44       1.0  0.3960008090971812  0.146234210446238  0.9438711914176281  1.0000
  O   O45       1.0  0.6572146957790322  0.006500115026320134  0.9456715717378471  1.0000
  O   O46       1.0  0.5033467496344172  0.9033095634544707  0.9319137205588458  1.0000
  O   O47       1.0  0.5682950537413873  0.8190863903436778  0.021110063096145378  1.0000
  O   O48       1.0  0.5112539199063377  0.05306016413702254  0.08258259991458057  1.0000
  O   O49       1.0  0.5325402105719164  0.8774007708863609  0.08015086995444419  1.0000
  O   O50       1.0  0.6041616519794459  0.06095717196596687  0.03223756595582468  1.0000
  O   O51       1.0  0.3124572272700163  0.08506426159896564  0.02382374618422739  1.0000
  O   O52       1.0  0.3708304167804926  0.020671847333794315  0.08152670833015208  1.0000
  O   O53       1.0  0.8087519250980008  0.5731751315652998  0.3838443702368862  1.0000
  O   O54       1.0  0.7241999775295936  0.5343716773745586  0.42146669889326904  1.0000
  O   O55       1.0  0.9983363771403971  0.23404736548141616  0.30899861306135523  1.0000
  O   O56       1.0  0.9838792409067024  0.17339281082475827  0.3706945289700484  1.0000
  O   O57       1.0  0.6764998975930893  0.44148600318771275  0.3662939469803915  1.0000
  O   O58       1.0  0.7154427388870843  0.5260107158157367  0.32879670800677724  1.0000
  O   O59       1.0  0.0163163036328342  0.2504252296714852  0.4409675716328819  1.0000
  O   O60       1.0  0.0765689532702751  0.2660464597625918  0.3793385696244299  1.0000
  O   O61       1.0  0.0965683027852648  0.7123575494383159  0.5212821127870979  1.0000
  O   O62       1.0  0.2192834340779939  0.6363381130693284  0.5218498149463073  1.0000
  O   O63       1.0  0.0398170369654878  0.6534743929175235  0.7284518382559071  1.0000
  O   O64       1.0  0.1152783649312781  0.5307155423587488  0.7278420347276934  1.0000
  O   O65       1.0  0.2863822236694347  0.6715653505706812  0.596060930367031  1.0000
  O   O66       1.0  0.1865647432272581  0.7702630007188133  0.5725831946491056  1.0000
  O   O67       1.0  0.0793064941365031  0.46442686222616186  0.65382738946748  1.0000
  O   O68       1.0  0.9806394449379354  0.5643466064245715  0.677228499049157  1.0000
  O   O69       1.0  0.7862495240398033  0.1704591611135696  0.09588775996393649  1.0000
  O   O70       1.0  0.686285753215209  0.26947328463661097  0.07269789273358639  1.0000
  O   O71       1.0  0.5790590420073514  0.9637737200037146  0.1540095539728696  1.0000
  O   O72       1.0  0.48012358627336477  0.06355294942071049  0.1772700247895571  1.0000
  O   O73       1.0  0.5966215653015183  0.2111038304646441  0.021429347106291588  1.0000
  O   O74       1.0  0.7192807970375696  0.13490695305938516  0.022010194688803594  1.0000
  O   O75       1.0  0.5379490093855779  0.15349048658769968  0.22842526134468946  1.0000
  O   O76       1.0  0.6142656900345358  0.030879452063324198  0.22818007586531752  1.0000
  O   O77       1.0  0.1759551461941129  0.9420870188787378  0.8667091607080122  1.0000
  O   O78       1.0  0.21483977502145282  0.026362439452142908  0.8288300537825248  1.0000
  O   O79       1.0  0.5156676803217906  0.7517078115489898  0.9411282789444468  1.0000
  O   O80       1.0  0.576288630483326  0.7665218860105937  0.8794844739082349  1.0000
  O   O81       1.0  0.3082893168583638  0.07384605988929141  0.8838208626532162  1.0000
  O   O82       1.0  0.22385950385151432  0.0349797663116362  0.9214826871449019  1.0000
  O   O83       1.0  0.4985965210922529  0.7346740881828069  0.8089997244909453  1.0000
  O   O84       1.0  0.4837513001746032  0.6740328368482695  0.8706526941060345  1.0000
  F   F1        1.0  0.29054677044460675  0.5229932746066269  0.40863392495773343  1.0000
  F   F2        1.0  0.7743643309225375  0.5429994159813986  0.6569110251337164  1.0000
  F   F3        1.0  0.0414580849978066  0.2817564306672651  0.6541384565199522  1.0000
  F   F4        1.0  0.7880862454676674  0.7748303368576542  0.4023744593061592  1.0000
  F   F5        1.0  0.7076644480818217  0.4751679340516544  0.0930681112625535  1.0000
  F   F6        1.0  0.091236397956358  0.1039590014465759  0.21837298248145484  1.0000
  F   F7        1.0  0.4644464986702489  0.4673080048469129  0.8497872382124142  1.0000
  F   F8        1.0  0.9660292081298109  0.7249625974552532  0.8386373024531366  1.0000
