data_image0
_chemical_formula_structural       Ni4H144W2C80N32
_chemical_formula_sum              "Ni4 H144 W2 C80 N32"
_cell_length_a       15.650684473405507
_cell_length_b       15.650154015856792
_cell_length_c       15.906515948169988
_cell_angle_alpha    106.53045575529468
_cell_angle_beta     111.8329420817854
_cell_angle_gamma    109.44054255350677

_space_group_name_H-M_alt    "P 1"
_space_group_IT_number       1

loop_
  _space_group_symop_operation_xyz
  'x, y, z'

loop_
  _atom_site_type_symbol
  _atom_site_label
  _atom_site_symmetry_multiplicity
  _atom_site_fract_x
  _atom_site_fract_y
  _atom_site_fract_z
  _atom_site_occupancy
  Ni  Ni1       1.0  0.49999823659545223  0.9999990687521675  0.999998279630006  1.0000
  Ni  Ni2       1.0  0.5000012251407356  0.5000025091080716  0.5000006201783053  1.0000
  Ni  Ni3       1.0  0.49999978033637393  0.9999988974145212  0.49999745192277345  1.0000
  Ni  Ni4       1.0  1.2568310693999998e-06  1.2584777735e-06  1.2565750466999995e-06  1.0000
  H   H1        1.0  0.5536752317529334  0.9881119632285266  0.2279653414117391  1.0000
  H   H2        1.0  0.26016051243093596  0.3256835091168285  0.27202484321227166  1.0000
  H   H3        1.0  0.44632168108257986  0.011885234067776331  0.7720341706440835  1.0000
  H   H4        1.0  0.7398444160909036  0.6743170298140698  0.727977310531486  1.0000
  H   H5        1.0  0.6349863397053709  0.9323598832517137  0.2521403610815796  1.0000
  H   H6        1.0  0.18023081726769866  0.3828097893729351  0.2478488627006712  1.0000
  H   H7        1.0  0.36501205043062157  0.06763698288937557  0.747858326562536  1.0000
  H   H8        1.0  0.8197684892753969  0.617184056441943  0.7521469006665457  1.0000
  H   H9        1.0  0.6974866180557768  0.9976673316341974  0.13972521082855138  1.0000
  H   H10       1.0  0.35792154548192906  0.5577438795490579  0.3602596727710433  1.0000
  H   H11       1.0  0.3025103798206742  0.0023302118074397865  0.8602720956663462  1.0000
  H   H12       1.0  0.642076132089926  0.44225566924285464  0.6397367922392692  1.0000
  H   H13       1.0  0.2562605668145608  0.8571115996601011  0.893969400946773  1.0000
  H   H14       1.0  0.46317226677577134  0.3622742940927424  0.606024123250961  1.0000
  H   H15       1.0  0.7437381971222978  0.14288633123301533  0.10602966403096303  1.0000
  H   H16       1.0  0.5368265321986813  0.637728448955258  0.3939734737602266  1.0000
  H   H17       1.0  0.231029693055362  0.760407125206598  0.7808300444001263  1.0000
  H   H18       1.0  0.4795823733080411  0.4501630550219816  0.7191563750306287  1.0000
  H   H19       1.0  0.7689680011429516  0.23959117162771568  0.2191694865341205  1.0000
  H   H20       1.0  0.5204177500196252  0.549838886571685  0.2808410069779512  1.0000
  H   H21       1.0  0.39442669465521607  0.758351898010389  0.8848342690901206  1.0000
  H   H22       1.0  0.3734923687220115  0.5095292654996086  0.6151499122509064  1.0000
  H   H23       1.0  0.6055729019243187  0.24164850853212275  0.11516334499393101  1.0000
  H   H24       1.0  0.6265068715754508  0.49047248236831137  0.3848465905162542  1.0000
  H   H25       1.0  0.2992984734685462  0.7218526242299248  0.9220938399732717  1.0000
  H   H26       1.0  0.29976194680382656  0.3771300962785631  0.5778751782695579  1.0000
  H   H27       1.0  0.700699950428522  0.27814321194510694  0.0779041118820131  1.0000
  H   H28       1.0  0.7002373613999637  0.6228717757431428  0.42212292064942863  1.0000
  H   H29       1.0  0.6169026984532875  0.7940142998419546  0.11057279558013275  1.0000
  H   H30       1.0  0.18343218529916777  0.5062813376993986  0.3894097867256932  1.0000
  H   H31       1.0  0.3830941802369665  0.20598174333450467  0.8894243845350331  1.0000
  H   H32       1.0  0.8165632669862858  0.49371422865776554  0.610583680299598  1.0000
  H   H33       1.0  0.5930068511178703  0.8385650834276747  0.01744777004681448  1.0000
  H   H34       1.0  0.321100369525517  0.5755183120103453  0.4825415000080042  1.0000
  H   H35       1.0  0.40699092812138077  0.16143355955197342  0.9825495553265  1.0000
  H   H36       1.0  0.6788964754036612  0.4244787611321644  0.5174564158959927  1.0000
  H   H37       1.0  0.49762892398378245  0.7190160072408747  0.9904395152792488  1.0000
  H   H38       1.0  0.2285658983594274  0.5071313743552326  0.5095410988758928  1.0000
  H   H39       1.0  0.5023674117160652  0.2809819369279297  0.009557898716948973  1.0000
  H   H40       1.0  0.7714286708958155  0.4928639982761923  0.49045148890797907  1.0000
  H   H41       1.0  0.40612231554179357  0.8169793916329483  0.16260196945670913  1.0000
  H   H42       1.0  0.15440613311577786  0.2434805832851269  0.3373867994485239  1.0000
  H   H43       1.0  0.5938755316037927  0.18301937550048572  0.8373969520684313  1.0000
  H   H44       1.0  0.8455948040592529  0.7565155857595515  0.662610597827367  1.0000
  H   H45       1.0  0.49369075713011773  0.7651329473454995  0.18348009491015194  1.0000
  H   H46       1.0  0.08166201408627663  0.3101464750545305  0.3165039975465689  1.0000
  H   H47       1.0  0.5063068691618681  0.23486522533502094  0.8165178398722617  1.0000
  H   H48       1.0  0.9183349321261219  0.6898475081898215  0.6834917109909427  1.0000
  H   H49       1.0  0.3788872998929307  0.7068705092728396  0.061502430444576844  1.0000
  H   H50       1.0  0.14537652949110932  0.31731922021601383  0.43848031416450073  1.0000
  H   H51       1.0  0.6211115494690558  0.2931299518515047  0.9384974967017143  1.0000
  H   H52       1.0  0.8546218602606999  0.6826754618391748  0.5615153057501274  1.0000
  H   H53       1.0  0.8388993966033025  0.16279728861713497  0.2998271281155596  1.0000
  H   H54       1.0  0.3629570099554087  0.5390526837005042  0.2001612152769923  1.0000
  H   H55       1.0  0.16109775422042116  0.8372007251236228  0.7001695689702316  1.0000
  H   H56       1.0  0.6370421786780085  0.4609455039701303  0.7998336895327826  1.0000
  H   H57       1.0  0.8067201973206934  0.059473890295081135  0.3288155585724652  1.0000
  H   H58       1.0  0.23065200538718492  0.4778676478409737  0.17116811494309292  1.0000
  H   H59       1.0  0.19327880460437527  0.9405248570424974  0.6711806914352323  1.0000
  H   H60       1.0  0.7693456542816931  0.5221273107876033  0.8288260163210027  1.0000
  H   H61       1.0  0.7569961860197338  0.14563200984663657  0.3532355866906087  1.0000
  H   H62       1.0  0.2924004690166626  0.40374012871525633  0.14675793631585776  1.0000
  H   H63       1.0  0.24300288381166268  0.8543668616447209  0.6467622594689288  1.0000
  H   H64       1.0  0.707598922951554  0.5962562473308495  0.8532386892199142  1.0000
  H   H65       1.0  0.75938179214598  0.12387195629923296  0.7056240301821006  1.0000
  H   H66       1.0  0.918239386986471  0.053788978589288675  0.7943975907565175  1.0000
  H   H67       1.0  0.24061872033249881  0.8761239559679198  0.29437752726175137  1.0000
  H   H68       1.0  0.08176177181051976  0.9462121530800901  0.20560692872107475  1.0000
  H   H69       1.0  0.8423766439412219  0.22263160494128456  0.6950118628787507  1.0000
  H   H70       1.0  0.027590307408743815  0.14739779374198056  0.8050017839196429  1.0000
  H   H71       1.0  0.15762339306898804  0.7773641483861055  0.3049884568684789  1.0000
  H   H72       1.0  0.9724108010007129  0.8526056198510549  0.1950004054228458  1.0000
  H   H73       1.0  0.6975759872818158  0.11465214076667966  0.4955251725235641  1.0000
  H   H74       1.0  0.11911631709090643  0.20204363694500674  0.0044910117500976225  1.0000
  H   H75       1.0  0.30242627463061916  0.8853454109095581  0.5044750774791993  1.0000
  H   H76       1.0  0.880883976194674  0.7979597070760747  0.9955118945028046  1.0000
  H   H77       1.0  0.4112001183687041  0.06493850502039328  0.6373984328905706  1.0000
  H   H78       1.0  0.9275745340728534  0.773815070398847  0.8625988668938049  1.0000
  H   H79       1.0  0.5887984584756367  0.935057801453759  0.3625989095556079  1.0000
  H   H80       1.0  0.07242555498558538  0.22618642721172222  0.1374061185402979  1.0000
  H   H81       1.0  0.3472356952190836  0.12443386063963398  0.5776437700755466  1.0000
  H   H82       1.0  0.04682141503313608  0.7696160275617602  0.9223520153049947  1.0000
  H   H83       1.0  0.652764205978471  0.8755616443801841  0.4223533573680243  1.0000
  H   H84       1.0  0.9531782323181163  0.23038428114298906  0.07765099664364782  1.0000
  H   H85       1.0  0.5020138899271274  0.20809175514173722  0.5588334156488628  1.0000
  H   H86       1.0  0.1492667586516417  0.9432195193473732  0.9411630777299677  1.0000
  H   H87       1.0  0.4979860112704272  0.7919037498780811  0.44116371179470787  1.0000
  H   H88       1.0  0.8507348073231072  0.05677946302208888  0.0588380155629338  1.0000
  H   H89       1.0  0.5353766286076649  0.24839333259933502  0.6885468339704844  1.0000
  H   H90       1.0  0.05985864232671644  0.8468586281039877  0.8114488075188434  1.0000
  H   H91       1.0  0.4646227295994835  0.7516040734128284  0.31145052735411843  1.0000
  H   H92       1.0  0.9401372007702449  0.1531389351335053  0.18855117049348996  1.0000
  H   H93       1.0  0.8331891757344678  0.3561231551224183  0.8082111498923226  1.0000
  H   H94       1.0  0.047837896158604475  0.02499781457846234  0.6917590175257686  1.0000
  H   H95       1.0  0.1668117105448772  0.6438738218967686  0.19179078488514986  1.0000
  H   H96       1.0  0.9521661838624736  0.9750058688324332  0.3082476566467134  1.0000
  H   H97       1.0  0.7594039443301027  0.25778643151918607  0.8282517021780861  1.0000
  H   H98       1.0  0.9294976415405926  0.9311727423865079  0.6717483675145246  1.0000
  H   H99       1.0  0.24059672109564895  0.7422099510470944  0.17174924585666673  1.0000
  H   H100      1.0  0.07050744031269562  0.06883045092941126  0.32825624454962105  1.0000
  H   H101      1.0  0.7095877609793034  0.33770939912349024  0.7935168025947661  1.0000
  H   H102      1.0  0.04414044591955951  0.916088445930768  0.7064481352162844  1.0000
  H   H103      1.0  0.29041378747664476  0.6622871771685226  0.20648502468140606  1.0000
  H   H104      1.0  0.9558675571578165  0.08391729912666816  0.2935586315427515  1.0000
  H   H105      1.0  0.6549532204788804  0.22966111028729605  0.5224738876691717  1.0000
  H   H106      1.0  0.20716947199964142  0.13248559065390006  0.9774972164199981  1.0000
  H   H107      1.0  0.3450475641330613  0.7703367725441553  0.4775271867453057  1.0000
  H   H108      1.0  0.79283302905354  0.8675193297244734  0.022509421801196142  1.0000
  H   H109      1.0  0.7805534032913569  0.330180698560156  0.6290133045846672  1.0000
  H   H110      1.0  0.20112065120969183  0.15156798526480486  0.8709660048451155  1.0000
  H   H111      1.0  0.21944918114207468  0.669816541756724  0.37098879252382494  1.0000
  H   H112      1.0  0.7988817481760933  0.8484378409258398  0.1290397730130762  1.0000
  H   H113      1.0  0.6638146508309148  0.3289444190193934  0.6187541996109189  1.0000
  H   H114      1.0  0.21015152940645979  0.045080061954109935  0.8811888394091129  1.0000
  H   H115      1.0  0.33618827364230697  0.6710549160155709  0.3812490106200314  1.0000
  H   H116      1.0  0.7898535865920806  0.954924285481653  0.11881810459568942  1.0000
  H   H117      1.0  0.8498689939773955  0.047472489895398276  0.606018766212742  1.0000
  H   H118      1.0  0.9414688066665421  0.24389655543438263  0.8940278200798347  1.0000
  H   H119      1.0  0.150134218871564  0.9525253796603721  0.3939839591832738  1.0000
  H   H120      1.0  0.05852876872975793  0.7561024252206395  0.10597465220416774  1.0000
  H   H121      1.0  0.8847056798401524  0.1514863924463657  0.5765897268551541  1.0000
  H   H122      1.0  0.07492536470822125  0.3081646088063438  0.9234743449934301  1.0000
  H   H123      1.0  0.11529569942625524  0.8485131495900262  0.42341271163567745  1.0000
  H   H124      1.0  0.92507367174629  0.6918374767369645  0.07652730468441872  1.0000
  H   H125      1.0  0.7995963302833858  0.02409183247647221  0.47662485291376566  1.0000
  H   H126      1.0  0.047485338599671016  0.3229944722947593  0.023435014320391207  1.0000
  H   H127      1.0  0.20040486189049733  0.9759060851409559  0.5233758630455085  1.0000
  H   H128      1.0  0.9525123897438944  0.6770049786593904  0.9765668485545119  1.0000
  H   H129      1.0  0.3971011350109351  0.8967828331958714  0.05665823661163927  1.0000
  H   H130      1.0  0.34014802212280415  0.34041970937424554  0.443327055927746  1.0000
  H   H131      1.0  0.6028967796567953  0.1032138740054549  0.9433392133358466  1.0000
  H   H132      1.0  0.6598545635871389  0.6595833730635763  0.5566743090030356  1.0000
  H   H133      1.0  0.6101883382869815  0.12776079665741968  0.1958118775823507  1.0000
  H   H134      1.0  0.4319776553950802  0.41439217205244466  0.3041920685623154  1.0000
  H   H135      1.0  0.3898085404032726  0.8722352465190398  0.8041853025328153  1.0000
  H   H136      1.0  0.5680241823289547  0.5856065967954224  0.695805473971717  1.0000
  H   H137      1.0  0.5923056702968665  0.11966526513896286  0.6842183009810016  1.0000
  H   H138      1.0  0.9354326352860338  0.9080856424185059  0.8157746530348645  1.0000
  H   H139      1.0  0.4076918364247462  0.8803292231904863  0.31577643969220043  1.0000
  H   H140      1.0  0.06456932239255758  0.09191899486631883  0.18422915133787401  1.0000
  H   H141      1.0  0.657236448734679  0.9644167338269798  0.5711068838099039  1.0000
  H   H142      1.0  0.893296303310727  0.08611885018622448  0.9288898760737041  1.0000
  H   H143      1.0  0.34276020910197497  0.03557871489657325  0.4288893095625355  1.0000
  H   H144      1.0  0.10670429459287335  0.9138795923121634  0.0711125435387104  1.0000
  W   W1        1.0  0.605345840404695  0.8553414767123899  0.7499987571619755  1.0000
  W   W2        1.0  0.39465956486193216  0.14466506327921283  0.2500039021006942  1.0000
  C   C1        1.0  0.5969625901694684  0.920975285039269  0.8808679688576646  1.0000
  C   C2        1.0  0.5400802954974252  0.7160730068455268  0.6191328233029836  1.0000
  C   C3        1.0  0.40304167822064574  0.07903586491152484  0.11913969566865033  1.0000
  C   C4        1.0  0.4599266203226051  0.2839306980756647  0.38087514339583345  1.0000
  C   C5        1.0  0.5304464467219104  0.9072821940908399  0.6511312496009011  1.0000
  C   C6        1.0  0.7561619458037113  0.879324916771239  0.848875261203858  1.0000
  C   C7        1.0  0.4695581255178567  0.09271968616547355  0.3488697928259583  1.0000
  C   C8        1.0  0.24383865337640023  0.12067936784808353  0.15112642623083866  1.0000
  C   C9        1.0  0.7009480883262639  0.020176615950561035  0.8243193391131456  1.0000
  C   C10       1.0  0.6958232742465355  0.8765713294843778  0.6756425295845573  1.0000
  C   C11       1.0  0.2990609341021225  0.9798310450893482  0.17568463155428288  1.0000
  C   C12       1.0  0.30418280943897713  0.12343137373656538  0.3243600203712447  1.0000
  C   C13       1.0  0.43884782180073495  0.7813869807103303  0.6991853407208737  1.0000
  C   C14       1.0  0.5822212231909346  0.7396686744162368  0.8008392998592626  1.0000
  C   C15       1.0  0.5611575997081671  0.2186161232377799  0.3008173167362357  1.0000
  C   C16       1.0  0.4177892931643968  0.26033740351085305  0.19916691232037917  1.0000
  C   C17       1.0  0.5068139092758273  0.8505502377904152  0.0978569173707201  1.0000
  C   C18       1.0  0.25269636246547816  0.4089210566815709  0.40212925659547233  1.0000
  C   C19       1.0  0.4931846000463623  0.14944812861584483  0.9021418966531202  1.0000
  C   C20       1.0  0.7473039300517428  0.5910779191677167  0.5978675141984482  1.0000
  C   C21       1.0  0.5924033040934091  0.9529542727611757  0.19602486984341289  1.0000
  C   C22       1.0  0.2569339203713596  0.3963439776855894  0.3039631532504146  1.0000
  C   C23       1.0  0.40759517108352833  0.04704293952524106  0.8039716122397635  1.0000
  C   C24       1.0  0.7430643164331912  0.6036502340704788  0.6960330760733129  1.0000
  C   C25       1.0  0.6766132852639046  0.03517874319219779  0.19250340208077438  1.0000
  C   C26       1.0  0.34267399663596615  0.4840832733274212  0.3074834259847279  1.0000
  C   C27       1.0  0.3233821674057321  0.9648190072508668  0.807493132674004  1.0000
  C   C28       1.0  0.6573274168996689  0.5159167126920609  0.6925114090805805  1.0000
  C   C29       1.0  0.29344263372984597  0.825033516524698  0.8572337598968146  1.0000
  C   C30       1.0  0.4678025924359517  0.4361780538019958  0.6427529302377266  1.0000
  C   C31       1.0  0.7065552813220676  0.1749653747625147  0.14276675778015865  1.0000
  C   C32       1.0  0.5321960698335104  0.5638207829033917  0.35724527437701425  1.0000
  C   C33       1.0  0.3547871752219436  0.7864051722235815  0.920741998146994  1.0000
  C   C34       1.0  0.36565977994051474  0.43399624020174343  0.5792340644795219  1.0000
  C   C35       1.0  0.6452119121282535  0.21359610534522502  0.07925511402926592  1.0000
  C   C36       1.0  0.6343406321470794  0.5660064199986153  0.42076590042361767  1.0000
  C   C37       1.0  0.5562402942844997  0.7978834806295014  0.05091137138806807  1.0000
  C   C38       1.0  0.24695767988627182  0.5052811523735556  0.4490710854297717  1.0000
  C   C39       1.0  0.4437539694603954  0.20211313548957593  0.9490855029434897  1.0000
  C   C40       1.0  0.753036872234361  0.49471399826632756  0.5509253040668581  1.0000
  C   C41       1.0  0.44242793179228096  0.7808991660667958  0.1282275280912798  1.0000
  C   C42       1.0  0.15267621433200415  0.31414087722237843  0.3717579267712949  1.0000
  C   C43       1.0  0.5575739404611894  0.21910294098680091  0.8717754141129035  1.0000
  C   C44       1.0  0.8473226171269984  0.6858549937386302  0.6282396666287866  1.0000
  C   C45       1.0  0.7755810739074462  0.10497140870530339  0.2998957236349398  1.0000
  C   C46       1.0  0.305069961668103  0.47566694927213155  0.20009188449701304  1.0000
  C   C47       1.0  0.22441799592395725  0.8950274627860608  0.7001021225245978  1.0000
  C   C48       1.0  0.694930755037518  0.5243308094055408  0.7999075937656314  1.0000
  C   C49       1.0  0.6979997095991308  0.22160495578850023  0.6672061319034839  1.0000
  C   C50       1.0  0.05437353805088906  0.030800725611982226  0.8327771836938851  1.0000
  C   C51       1.0  0.30200126172115205  0.7783923673760215  0.33279359731307084  1.0000
  C   C52       1.0  0.945630541970182  0.9692029577989135  0.16722949047859695  1.0000
  C   C53       1.0  0.7594848989380978  0.1634548320223816  0.6582471834023166  1.0000
  C   C54       1.0  0.005182522402336155  0.10127674511578992  0.8417720693809941  1.0000
  C   C55       1.0  0.24051362662637385  0.8365400983403788  0.3417516288159632  1.0000
  C   C56       1.0  0.9948180246055786  0.8987225053570997  0.1582348877330019  1.0000
  C   C57       1.0  0.72612298890634  0.08735613290183145  0.5510614604243003  1.0000
  C   C58       1.0  0.03628887406949815  0.17506895005068648  0.9489569562250678  1.0000
  C   C59       1.0  0.27387847540100546  0.9126437552798948  0.44893877250559905  1.0000
  C   C60       1.0  0.9637145437749696  0.8249351340873762  0.05104982544872168  1.0000
  C   C61       1.0  0.4032215152996129  0.09538324378247154  0.5823081158251923  1.0000
  C   C62       1.0  0.013104009869117143  0.8209268421417164  0.9176774312960703  1.0000
  C   C63       1.0  0.596778793459883  0.9046122960233235  0.41768865316317505  1.0000
  C   C64       1.0  0.9868954170127111  0.17907505619601966  0.08232766163934013  1.0000
  C   C65       1.0  0.5101338879668589  0.18285665104166784  0.6177755141547081  1.0000
  C   C66       1.0  0.06510211907891508  0.892398671479256  0.8822276884482603  1.0000
  C   C67       1.0  0.48986553776243363  0.8171386950383878  0.3822203755922402  1.0000
  C   C68       1.0  0.9348940636736602  0.10759880239042754  0.11777033495703654  1.0000
  C   C69       1.0  0.7529898296013259  0.2976146585628502  0.7812258878484287  1.0000
  C   C70       1.0  0.016345197855137588  0.9717728188401937  0.7187404357675432  1.0000
  C   C71       1.0  0.24701209303967886  0.7023851665670904  0.21877938449085826  1.0000
  C   C72       1.0  0.9836602577990236  0.028231439227760013  0.2812645536302228  1.0000
  C   C73       1.0  0.6984971362422527  0.2799734395993526  0.6049804008587216  1.0000
  C   C74       1.0  0.17497724755256144  0.09353882379226502  0.8949941668194012  1.0000
  C   C75       1.0  0.3015052614828375  0.720024360384457  0.39502304144770045  1.0000
  C   C76       1.0  0.825023895002154  0.9064657439206131  0.10501035446374359  1.0000
  C   C77       1.0  0.8204908167416463  0.07652080191975603  0.5526284707240733  1.0000
  C   C78       1.0  0.023907513033016237  0.2678733380696626  0.9474272407356423  1.0000
  C   C79       1.0  0.1795059940422802  0.9234751171029174  0.44736711323925965  1.0000
  C   C80       1.0  0.9760920155162155  0.7321276544558019  0.05257871256276303  1.0000
  N   N1        1.0  0.5854225303495821  0.9523137321873281  0.950140136841668  1.0000
  N   N2        1.0  0.5021209782757695  0.635249917384222  0.5498595340769796  1.0000
  N   N3        1.0  0.4145758093988832  0.047685415877417446  0.04985622066733701  1.0000
  N   N4        1.0  0.49788187956763597  0.3647551356178981  0.45014134782442017  1.0000
  N   N5        1.0  0.4972297307980113  0.9403183534532786  0.5966830093202233  1.0000
  N   N6        1.0  0.8436386269240754  0.9005593111662337  0.9033247273978446  1.0000
  N   N7        1.0  0.5027703408656025  0.05968002794310227  0.4033127747309706  1.0000
  N   N8        1.0  0.15636767799921358  0.09944617059350953  0.09668187703017853  1.0000
  N   N9        1.0  0.75122738845738  0.11023561755204292  0.8667894325389583  1.0000
  N   N10       1.0  0.743396592334548  0.8843652314966164  0.6331611622865194  1.0000
  N   N11       1.0  0.24877808394720793  0.8897666784215589  0.13320868741656264  1.0000
  N   N12       1.0  0.25660281587594364  0.11562770850598983  0.3668354614436993  1.0000
  N   N13       1.0  0.348371334956539  0.7423062306010665  0.6718264933125724  1.0000
  N   N14       1.0  0.5704841081043525  0.6765346865478963  0.8281803702787798  1.0000
  N   N15       1.0  0.6516353433834325  0.25769813182481033  0.3281774207195837  1.0000
  N   N16       1.0  0.4295291090056494  0.3234755327536974  0.17183007758251279  1.0000
  N   N17       1.0  0.4357270570734215  0.8722568685485188  0.024214114360994295  1.0000
  N   N18       1.0  0.34805218603155197  0.41147665933342387  0.47577713671891075  1.0000
  N   N19       1.0  0.5642708579784922  0.12774202273869417  0.9757864033159791  1.0000
  N   N20       1.0  0.6519461874779822  0.5885214587652642  0.5242184850012706  1.0000
  N   N21       1.0  0.6324353938992857  0.09287769063212915  0.14902239115760108  1.0000
  N   N22       1.0  0.4438609792147118  0.4834244623140194  0.35097925813131775  1.0000
  N   N23       1.0  0.36756141726882413  0.9071204124764379  0.8509762605352194  1.0000
  N   N24       1.0  0.5561394845369279  0.5165817580836247  0.6490223047292005  1.0000
  N   N25       1.0  0.5870869967480556  0.14582282322314924  0.6312377841832628  1.0000
  N   N26       1.0  0.014600357289076325  0.955868446194373  0.8687696672254505  1.0000
  N   N27       1.0  0.4129148063225684  0.8541733175557199  0.36876429404680516  1.0000
  N   N28       1.0  0.9854032472637326  0.044135078276760074  0.13123576925040928  1.0000
  N   N29       1.0  0.6348501023625273  0.9884458155851592  0.5168484860504847  1.0000
  N   N30       1.0  0.9715910260228213  0.11799777143067341  0.9831442475136712  1.0000
  N   N31       1.0  0.3651495104592896  0.011551154913853164  0.4831491262280139  1.0000
  N   N32       1.0  0.028413987924139402  0.8820052977314603  0.016858768398641626  1.0000
