data_image0
_chemical_formula_structural       Cd2H14C12N14O4
_chemical_formula_sum              "Cd2 H14 C12 N14 O4"
_cell_length_a       6.310673555934003
_cell_length_b       8.2622185483049
_cell_length_c       10.508821578797987
_cell_angle_alpha    71.11860350691843
_cell_angle_beta     81.59811370445654
_cell_angle_gamma    86.25953562281221

_space_group_name_H-M_alt    "P 1"
_space_group_IT_number       1

loop_
  _space_group_symop_operation_xyz
  'x, y, z'

loop_
  _atom_site_type_symbol
  _atom_site_label
  _atom_site_symmetry_multiplicity
  _atom_site_fract_x
  _atom_site_fract_y
  _atom_site_fract_z
  _atom_site_occupancy
  Cd  Cd1       1.0  0.2667863019324628  0.46049013835874325  0.4173169240225079  1.0000
  Cd  Cd2       1.0  0.7332179045206573  0.5395086125511172  0.5826829911781956  1.0000
  H   H1        1.0  0.19232855938334845  0.13258828323770896  0.39510971619060353  1.0000
  H   H2        1.0  0.8076772199210753  0.8674130134313245  0.6048894198495987  1.0000
  H   H3        1.0  0.0668821114390425  0.2669581596518142  0.2818520813427626  1.0000
  H   H4        1.0  0.9331173036215503  0.7330418884364176  0.718149860528044  1.0000
  H   H5        1.0  0.1586178327420527  0.5560993113151157  0.10070609920104802  1.0000
  H   H6        1.0  0.8413719414138755  0.4439008342607663  0.8992948121781056  1.0000
  H   H7        1.0  0.6290807308629384  0.9103744374174311  0.831577350148578  1.0000
  H   H8        1.0  0.37091387830508893  0.08962438012522969  0.16842439312198823  1.0000
  H   H9        1.0  0.8270225707699411  0.869898098185054  0.02990854423170921  1.0000
  H   H10       1.0  0.17297359678913446  0.13009819938393008  0.9700889221914866  1.0000
  H   H11       1.0  0.6756134924805011  0.6708430259901875  0.25707013355073366  1.0000
  H   H12       1.0  0.3243858935998817  0.32915069764570154  0.7429267215711093  1.0000
  H   H13       1.0  0.3239207285740023  0.8541662473025227  0.7402343257766333  1.0000
  H   H14       1.0  0.6760818177090472  0.14583509557564867  0.2597631962945642  1.0000
  C   C1        1.0  0.3060180774784129  0.6271793643219041  0.08245232776860685  1.0000
  C   C2        1.0  0.6939812939626009  0.37282071462117017  0.9175467555406842  1.0000
  C   C3        1.0  0.3797697619570784  0.7343297535236388  0.9516294838089152  1.0000
  C   C4        1.0  0.6202295657847544  0.2656754322920847  0.04836928577189069  1.0000
  C   C5        1.0  0.5682301184884795  0.8252709898077484  0.9317470614997988  1.0000
  C   C6        1.0  0.4317692820521586  0.17472779956099055  0.06825329130891332  1.0000
  C   C7        1.0  0.6792462648440036  0.8025660657744923  0.04143773413001373  1.0000
  C   C8        1.0  0.32074997539447037  0.19743144937420004  0.9585651327706305  1.0000
  C   C9        1.0  0.5953315663176256  0.6933580225413819  0.1677238437071011  1.0000
  C   C10       1.0  0.4046726256354277  0.30663820064453523  0.8322738462232451  1.0000
  C   C11       1.0  0.26408220226172574  0.753620874226847  0.8357053153001105  1.0000
  C   C12       1.0  0.7359108485948554  0.24637538727169778  0.1642981599847957  1.0000
  N   N1        1.0  0.029083511608867206  0.34972938353394056  0.6187451836556407  1.0000
  N   N2        1.0  0.9709174182032927  0.6502694444399141  0.38125025901453563  1.0000
  N   N3        1.0  0.007535159945732101  0.2073572401545576  0.6986344509105323  1.0000
  N   N4        1.0  0.9924691629655698  0.792632545444583  0.30136863366308125  1.0000
  N   N5        1.0  0.9859698455774792  0.0718169059763838  0.7789999986093863  1.0000
  N   N6        1.0  0.0140359482668018  0.9281843804076999  0.22100009028465453  1.0000
  N   N7        1.0  0.4263443697467011  0.6707450019551972  0.4937429616340552  1.0000
  N   N8        1.0  0.573656647304624  0.3292537643089659  0.5062581981591592  1.0000
  N   N9        1.0  0.3403122389909826  0.8020346326034158  0.5008204679702787  1.0000
  N   N10       1.0  0.6596903217523219  0.19797177600760563  0.49918055178778803  1.0000
  N   N11       1.0  0.25373002238793424  0.9279917646804847  0.5097714483585847  1.0000
  N   N12       1.0  0.7462806064485435  0.07200946267482779  0.49023010863512445  1.0000
  N   N13       1.0  0.4110219095260917  0.6085786488443219  0.18843769025928478  1.0000
  N   N14       1.0  0.5889774182356433  0.3914252679669445  0.8115604431132654  1.0000
  O   O1        1.0  0.1955197748573738  0.25011817125868413  0.329376955074018  1.0000
  O   O2        1.0  0.8044811840146125  0.749881905149721  0.6706210295120982  1.0000
  O   O3        1.0  0.1111178340277021  0.6651965922831735  0.8402024303477093  1.0000
  O   O4        1.0  0.8888767460407011  0.3348035148338369  0.15979804342343581  1.0000
