data_image0
_chemical_formula_structural       Cu2H24C32O12
_chemical_formula_sum              "Cu2 H24 C32 O12"
_cell_length_a       4.8592526081205865
_cell_length_b       9.565244735503207
_cell_length_c       15.590796352836433
_cell_angle_alpha    103.10199106755967
_cell_angle_beta     90.00202684954864
_cell_angle_gamma    90.00214172024792

_space_group_name_H-M_alt    "P 1"
_space_group_IT_number       1

loop_
  _space_group_symop_operation_xyz
  'x, y, z'

loop_
  _atom_site_type_symbol
  _atom_site_label
  _atom_site_symmetry_multiplicity
  _atom_site_fract_x
  _atom_site_fract_y
  _atom_site_fract_z
  _atom_site_occupancy
  Cu  Cu1       1.0  0.4999606978765883  0.4999608725325261  0.5000143956397949  1.0000
  Cu  Cu2       1.0  0.9999795937533946  0.9999768452985478  0.5000090151142729  1.0000
  H   H1        1.0  0.2320456881999888  0.20004325945952672  0.37665717734985543  1.0000
  H   H2        1.0  0.7318870144088265  0.29981417524656717  0.623305603529765  1.0000
  H   H3        1.0  0.7679930043266195  0.7998694189358135  0.6232850646609338  1.0000
  H   H4        1.0  0.26800556548523957  0.7000707523943958  0.3766610560262649  1.0000
  H   H5        1.0  0.13258580669872796  0.08060530060507182  0.2322086192626571  1.0000
  H   H6        1.0  0.6324973919411362  0.41937320934504646  0.7677844023197766  1.0000
  H   H7        1.0  0.8674961087729328  0.9194245041915822  0.7677721258638927  1.0000
  H   H8        1.0  0.36745899115337716  0.580658863647308  0.23221846085385783  1.0000
  H   H9        1.0  0.21055627670328647  0.038268503648879515  0.070666716084105  1.0000
  H   H10       1.0  0.7105817870152505  0.46175806832982863  0.9293311957387899  1.0000
  H   H11       1.0  0.7894968291482057  0.961802049752926  0.9293125584922138  1.0000
  H   H12       1.0  0.28944662553912076  0.5383201503815941  0.07067606844778855  1.0000
  H   H13       1.0  0.552296144540442  0.18854785891285533  0.011841367900949308  1.0000
  H   H14       1.0  0.052297354992234084  0.3114759444911216  0.9881640241275491  1.0000
  H   H15       1.0  0.4477693106341078  0.8115442419657057  0.9881549710586411  1.0000
  H   H16       1.0  0.9477084191913929  0.6885754428592393  0.011840203774532737  1.0000
  H   H17       1.0  0.8107170165307663  0.3807258873971904  0.11542916689143111  1.0000
  H   H18       1.0  0.3106884715616118  0.11930214129886005  0.8845816043383508  1.0000
  H   H19       1.0  0.1893813652798144  0.619331992053418  0.8845849310554641  1.0000
  H   H20       1.0  0.6893502295034536  0.8807535219255557  0.11542000276931932  1.0000
  H   H21       1.0  0.7308037910794949  0.42235679131956533  0.2761873603429806  1.0000
  H   H22       1.0  0.23065940369653495  0.07763710685900801  0.7238248983522338  1.0000
  H   H23       1.0  0.2692863572792987  0.5776592367490566  0.7238229255373909  1.0000
  H   H24       1.0  0.769259936384664  0.9223853196522144  0.27617920807782786  1.0000
  C   C1        1.0  0.652796710835247  0.24039342044029152  0.407238255086753  1.0000
  C   C2        1.0  0.1526610093382175  0.2595364022969521  0.5927823125934567  1.0000
  C   C3        1.0  0.3471905370653801  0.7595388531678751  0.5927554193862363  1.0000
  C   C4        1.0  0.8472439223734014  0.7403938320205442  0.407230324142617  1.0000
  C   C5        1.0  0.38999163584913527  0.27537430905267246  0.36201181357743195  1.0000
  C   C6        1.0  0.8898476768811532  0.22453438774792298  0.6379854075999205  1.0000
  C   C7        1.0  0.6100285397251425  0.7245794182535549  0.6379822359397238  1.0000
  C   C8        1.0  0.11004079045824257  0.7753968221062807  0.36201004474599335  1.0000
  C   C9        1.0  0.4266205586276541  0.2534111886440654  0.2638354018873912  1.0000
  C   C10       1.0  0.9265078041141805  0.24653916281653923  0.7361615223176372  1.0000
  C   C11       1.0  0.5734304884748693  0.7466037113060936  0.7361651080375327  1.0000
  C   C12       1.0  0.07342182332168791  0.7534434942175071  0.26382751216095823  1.0000
  C   C13       1.0  0.2803727888570932  0.14578651398613826  0.2059358143457075  1.0000
  C   C14       1.0  0.7802784965465364  0.3541869745493997  0.7940453355536974  1.0000
  C   C15       1.0  0.7197153007195211  0.8542529405283121  0.7940443292039634  1.0000
  C   C16       1.0  0.21967376936866148  0.6458332115591788  0.2059417873849085  1.0000
  C   C17       1.0  0.3257770960978945  0.12216451202601064  0.1154201133229833  1.0000
  C   C18       1.0  0.8257400168771554  0.37783592858157533  0.8845780644731462  1.0000
  C   C19       1.0  0.6742842417382703  0.8778964497011544  0.8845700333890463  1.0000
  C   C20       1.0  0.17424106123466737  0.6222004057170524  0.11541961023278453  1.0000
  C   C21       1.0  0.5162005868258319  0.20655808385664906  0.08251249317233093  1.0000
  C   C22       1.0  0.016178102988391195  0.29346692682937464  0.9174836827749147  1.0000
  C   C23       1.0  0.4838895632791633  0.7935297201574161  0.9174826155791465  1.0000
  C   C24       1.0  0.9838420763932729  0.7065897733888774  0.08251165228542592  1.0000
  C   C25       1.0  0.6613247396758337  0.31460720595903524  0.14036377649779302  1.0000
  C   C26       1.0  0.16126936267261976  0.18539355919300252  0.8596467264265613  1.0000
  C   C27       1.0  0.33875100505794353  0.6854474819819814  0.8596550151492792  1.0000
  C   C28       1.0  0.8387199463509203  0.814627733309024  0.14034632103219022  1.0000
  C   C29       1.0  0.6174556493982593  0.3384217350252215  0.23078144116512794  1.0000
  C   C30       1.0  0.11732042024303979  0.16156290731422024  0.7692237976278521  1.0000
  C   C31       1.0  0.38263244135395513  0.6616082181286487  0.7692256220454893  1.0000
  C   C32       1.0  0.8825927457728324  0.838457354262012  0.23077680499855555  1.0000
  O   O1        1.0  0.3093342243373272  0.4165999244741558  0.3998123823990555  1.0000
  O   O2        1.0  0.8093177486393228  0.08328006937292541  0.6002005327911846  1.0000
  O   O3        1.0  0.6906015761023951  0.583298227932744  0.6002170237445057  1.0000
  O   O4        1.0  0.19069419618563893  0.9166438308158151  0.39982983719372817  1.0000
  O   O5        1.0  0.7341211640763631  0.3417174341799196  0.47357559311706143  1.0000
  O   O6        1.0  0.23410027236659658  0.15823814391293925  0.5264737838565168  1.0000
  O   O7        1.0  0.2658043468779995  0.6581967646705279  0.5264463912151669  1.0000
  O   O8        1.0  0.7658437611019123  0.84172105427772  0.47353961591174004  1.0000
  O   O9        1.0  0.780183265536074  0.12672646729434692  0.3834815696119662  1.0000
  O   O10       1.0  0.28006466959582343  0.37325916350589955  0.6165615346122593  1.0000
  O   O11       1.0  0.21982250447200608  0.8732358035388756  0.6165059539275576  1.0000
  O   O12       1.0  0.7198649584172969  0.6266765284707534  0.3834678854925784  1.0000
