data_image0
_chemical_formula_structural       Zn4H42C64N4O19
_chemical_formula_sum              "Zn4 H42 C64 N4 O19"
_cell_length_a       11.14229476326732
_cell_length_b       13.994762717942814
_cell_length_c       26.54058410178893
_cell_angle_alpha    90.0905420881022
_cell_angle_beta     89.78684878774351
_cell_angle_gamma    89.94044042445253

_space_group_name_H-M_alt    "P 1"
_space_group_IT_number       1

loop_
  _space_group_symop_operation_xyz
  'x, y, z'

loop_
  _atom_site_type_symbol
  _atom_site_label
  _atom_site_symmetry_multiplicity
  _atom_site_fract_x
  _atom_site_fract_y
  _atom_site_fract_z
  _atom_site_occupancy
  Zn  Zn1       1.0  0.503390344618964  0.4000723113131813  0.49943669987410977  1.0000
  Zn  Zn2       1.0  0.502007021513954  0.5987416950244439  0.5006940756794548  1.0000
  Zn  Zn3       1.0  0.5038871995437973  0.6012340302325611  0.07984462651381108  1.0000
  Zn  Zn4       1.0  0.5029191701879014  0.4027338087320018  0.08054962206308858  1.0000
  H   H1        1.0  0.6317548016704891  0.24701443234884835  0.44451948791925106  1.0000
  H   H2        1.0  0.6381383285358881  0.07005579620543051  0.44196565289435324  1.0000
  H   H3        1.0  0.3685066002954187  0.7515070687022104  0.5545123314880056  1.0000
  H   H4        1.0  0.36118594924545283  0.928551854608479  0.5571894172696827  1.0000
  H   H5        1.0  0.6342770918486309  0.7518910942166458  0.4454180572186386  1.0000
  H   H6        1.0  0.6387607613043047  0.9284933077951294  0.44215865511763736  1.0000
  H   H7        1.0  0.36920970291822647  0.24776048151598223  0.5550041459932442  1.0000
  H   H8        1.0  0.36174549281747664  0.07107277038821992  0.5575128116548311  1.0000
  H   H9        1.0  0.5014884971453029  0.6564907328105533  0.24302269620365982  1.0000
  H   H10       1.0  0.42140120943690823  0.2788866144291546  0.24205218714012483  1.0000
  H   H11       1.0  0.5815499957148234  0.2779031940901291  0.24199913004774481  1.0000
  H   H12       1.0  0.5813792281519882  0.27925578141913127  0.33679996303554544  1.0000
  H   H13       1.0  0.4212641731487282  0.2800072184634814  0.3371463367772093  1.0000
  H   H14       1.0  0.4985683840255391  0.3469814323063432  0.6607233153607692  1.0000
  H   H15       1.0  0.4991552696423868  0.34533871049254833  0.7534310942243179  1.0000
  H   H16       1.0  0.5003633353535051  0.6523307908911065  0.9191378709504148  1.0000
  H   H17       1.0  0.5005034903090646  0.6539352397645433  0.8264247622213217  1.0000
  H   H18       1.0  0.4993980904620941  0.3463978908085679  0.9187649587197623  1.0000
  H   H19       1.0  0.4993106601119877  0.3451161185145254  0.8260056070958367  1.0000
  H   H20       1.0  0.49959266129463503  0.6530367118596274  0.6613045684563159  1.0000
  H   H21       1.0  0.500151717953287  0.6540878273063058  0.7539861615830855  1.0000
  H   H22       1.0  0.8904647039018487  0.34336527049664783  0.500019611260363  1.0000
  H   H23       1.0  0.88778377820654  0.7214709323714674  0.466176583886863  1.0000
  H   H24       1.0  0.8858990263918047  0.7216733911613247  0.5334186379821586  1.0000
  H   H25       1.0  0.1120650813487316  0.7209274554180712  0.5339524388095567  1.0000
  H   H26       1.0  0.11380917206943764  0.7206049069359397  0.4667316356244908  1.0000
  H   H27       1.0  0.6322393045058732  0.7532842364898189  0.13389131674302485  1.0000
  H   H28       1.0  0.6394877251021001  0.9302604066455162  0.13663889781719965  1.0000
  H   H29       1.0  0.3704362405282708  0.2504331226961867  0.02558438071234549  1.0000
  H   H30       1.0  0.363246282834723  0.07334441292324101  0.02235661759333139  1.0000
  H   H31       1.0  0.6342004492991365  0.24877590745311548  0.13455849474139814  1.0000
  H   H32       1.0  0.6402593637472123  0.07171007075255893  0.13667531932620844  1.0000
  H   H33       1.0  0.3697518903863683  0.7541426261870046  0.02427188341219019  1.0000
  H   H34       1.0  0.36294767242814885  0.9309386328029774  0.02200612534461039  1.0000
  H   H35       1.0  0.8907685369945998  0.657604647706137  0.07980465120564867  1.0000
  H   H36       1.0  0.8885146534789286  0.2797846607939647  0.11437689928337848  1.0000
  H   H37       1.0  0.8874799746879277  0.2790871903821071  0.04715917633055969  1.0000
  H   H38       1.0  0.113709551347057  0.2800994603272784  0.04636014714156998  1.0000
  H   H39       1.0  0.11474723019513532  0.28019168477899836  0.11355300341985236  1.0000
  H   H40       1.0  0.4988541111047341  0.6595697903888081  0.3763288110867079  1.0000
  H   H41       1.0  0.20790948115014632  0.3412272054966864  0.49876279842055715  1.0000
  H   H42       1.0  0.2084536493164819  0.6594303076589795  0.08123935081771087  1.0000
  C   C1        1.0  0.4977733551737415  0.5007641192372321  0.5986947624034327  1.0000
  C   C2        1.0  0.26326719646904456  0.49899937400566335  0.4998237968128192  1.0000
  C   C3        1.0  0.5016690543733731  0.5015286855840914  0.3997412186205337  1.0000
  C   C4        1.0  0.7372777653983889  0.49548701922024213  0.49902763141317036  1.0000
  C   C5        1.0  0.4987651774450583  0.4992538675154209  0.9813097132790954  1.0000
  C   C6        1.0  0.2638091041015543  0.5016699738837289  0.08014235742596296  1.0000
  C   C7        1.0  0.5024842492443328  0.5033464231705623  0.17891090438356363  1.0000
  C   C8        1.0  0.7382193247806088  0.5052925828771961  0.08020296121771507  1.0000
  C   C9        1.0  0.5736566757371194  0.20424788989303275  0.46874006187375955  1.0000
  C   C10       1.0  0.576131716683861  0.10507165876315844  0.4678158620826378  1.0000
  C   C11       1.0  0.42672002598704495  0.7945303293326447  0.53047220901783  1.0000
  C   C12       1.0  0.42372615593745183  0.893754984118239  0.5314726238803968  1.0000
  C   C13       1.0  0.5751490809658081  0.7946088672651541  0.4693385137552679  1.0000
  C   C14       1.0  0.5768693218697081  0.8937966284306569  0.4680729446257031  1.0000
  C   C15       1.0  0.4266940054616697  0.20474000361421932  0.530520581472828  1.0000
  C   C16       1.0  0.4238904478222525  0.10555877742522313  0.5316119287809966  1.0000
  C   C17       1.0  0.4999056338467157  0.0525717666343155  0.4997129991704055  1.0000
  C   C18       1.0  0.5000764540988101  0.9465401721400613  0.49974539166949206  1.0000
  C   C19       1.0  0.5025414134122174  0.5029980279177978  0.23523754875688488  1.0000
  C   C20       1.0  0.5020272038300605  0.5025138015871138  0.34415505337683056  1.0000
  C   C21       1.0  0.502427631149807  0.41823453321183013  0.2630423472205265  1.0000
  C   C22       1.0  0.5019112621344847  0.5894598116031773  0.3159103722255521  1.0000
  C   C23       1.0  0.502189624143476  0.41877536440170376  0.3154232223283272  1.0000
  C   C24       1.0  0.5022649371755818  0.5884605126218362  0.2629118631035324  1.0000
  C   C25       1.0  0.5015841322059843  0.3100814531880189  0.25955771636481006  1.0000
  C   C26       1.0  0.5014228334164983  0.3107080811975892  0.3191817689220143  1.0000
  C   C27       1.0  0.49817763069206233  0.5000714318650523  0.6549856003278901  1.0000
  C   C28       1.0  0.4990046946414709  0.4993408176757939  0.9249229030409364  1.0000
  C   C29       1.0  0.49838952761137295  0.4139081536169727  0.6817442050550536  1.0000
  C   C30       1.0  0.498891259555073  0.41389336692201806  0.7341032112109429  1.0000
  C   C31       1.0  0.4996267070218466  0.5854265272115667  0.8981060241713191  1.0000
  C   C32       1.0  0.4998601495525179  0.585375900072883  0.8457525851748995  1.0000
  C   C33       1.0  0.4990812869018698  0.41336712912553253  0.8978857321867931  1.0000
  C   C34       1.0  0.49921814611282406  0.4135922751226603  0.845528848794366  1.0000
  C   C35       1.0  0.49893405022064036  0.5859819530537678  0.6821042932374152  1.0000
  C   C36       1.0  0.49942383478728664  0.5856555941118701  0.7344363759704603  1.0000
  C   C37       1.0  0.4992424708477757  0.49965929961335587  0.7620340503266118  1.0000
  C   C38       1.0  0.4994391078814431  0.49953067958017533  0.8178952814263593  1.0000
  C   C39       1.0  0.8712782074798257  0.4968400708254706  0.49969411441095685  1.0000
  C   C40       1.0  0.1307543404478437  0.4979743191785105  0.5001634050419381  1.0000
  C   C41       1.0  0.9372119563116074  0.5817988503474112  0.4999697724136849  1.0000
  C   C42       1.0  0.06376141177839402  0.4108601099555501  0.5000501341207195  1.0000
  C   C43       1.0  0.06201030961723571  0.5814972484972785  0.5002592830054764  1.0000
  C   C44       1.0  0.937545205806373  0.41154210923298973  0.4999609327533177  1.0000
  C   C45       1.0  0.9286463906786581  0.6899407611334921  0.4999465250506743  1.0000
  C   C46       1.0  0.07068109879234899  0.6895866418776393  0.5002167491143863  1.0000
  C   C47       1.0  0.5745382052793246  0.7964991617949764  0.10985832438513647  1.0000
  C   C48       1.0  0.5773789910990176  0.8956849557907847  0.11090628570568836  1.0000
  C   C49       1.0  0.42834405223453603  0.20705595246454328  0.049451536195981284  1.0000
  C   C50       1.0  0.42546108854019593  0.1078370314141281  0.048101443207116276  1.0000
  C   C51       1.0  0.5759125756693565  0.2061618208192399  0.11045874600601725  1.0000
  C   C52       1.0  0.5781556177295856  0.10693106632860612  0.11119347565095686  1.0000
  C   C53       1.0  0.4275046685576029  0.796872385527209  0.04855906498417538  1.0000
  C   C54       1.0  0.42506600778063597  0.8960650194816966  0.04761739474257348  1.0000
  C   C55       1.0  0.5013688507479799  0.94858883373594  0.07930164985626925  1.0000
  C   C56       1.0  0.5016423748886821  0.05460008167615629  0.07949874831693646  1.0000
  C   C57       1.0  0.8721626684985325  0.5041641634492394  0.08022108021518898  1.0000
  C   C58       1.0  0.13136608306106012  0.502934076890604  0.08009667975706945  1.0000
  C   C59       1.0  0.938171433444076  0.4191775122153559  0.08033289132325186  1.0000
  C   C60       1.0  0.06431995420025768  0.5901133536338321  0.08012464235266487  1.0000
  C   C61       1.0  0.06290933805686191  0.41943428861750937  0.08014621227081878  1.0000
  C   C62       1.0  0.9381378025825031  0.5894727185191684  0.08002402576223486  1.0000
  C   C63       1.0  0.9298067768496524  0.31105763531749636  0.08051281935425438  1.0000
  C   C64       1.0  0.0718544215451402  0.311351849195198  0.08016662894174688  1.0000
  N   N1        1.0  0.5000703980925112  0.2533779270963236  0.49954158615293637  1.0000
  N   N2        1.0  0.5013012063111191  0.7456367657245195  0.49996953472898276  1.0000
  N   N3        1.0  0.5008116472173613  0.7478723133621443  0.07919191239025025  1.0000
  N   N4        1.0  0.5022494651901966  0.2555564108662622  0.08012813477313327  1.0000
  O   O1        1.0  0.49680448525675325  0.4201391466070491  0.5761937157852797  1.0000
  O   O2        1.0  0.4985895853497979  0.5822795451172738  0.5771953025465419  1.0000
  O   O3        1.0  0.31716696516959086  0.5788290285278707  0.5003461305418779  1.0000
  O   O4        1.0  0.317138607443411  0.4169055020533889  0.4988335912564208  1.0000
  O   O5        1.0  0.5002918581897761  0.5835448028755936  0.4225155123605686  1.0000
  O   O6        1.0  0.5024815194709973  0.42159111321184645  0.42229666889070205  1.0000
  O   O7        1.0  0.685572528434463  0.4142616595305313  0.49887319523645585  1.0000
  O   O8        1.0  0.684360504547499  0.5764884344036647  0.4987116017011813  1.0000
  O   O9        1.0  0.4976306185698931  0.5804285784724783  0.003238799798509699  1.0000
  O   O10       1.0  0.49984771502781916  0.41823636889024135  0.003183289416185199  1.0000
  O   O11       1.0  0.3175228735504589  0.42172158243955243  0.07972944132010437  1.0000
  O   O12       1.0  0.3175464574782154  0.5837296879184848  0.08067234647270279  1.0000
  O   O13       1.0  0.5018155539946463  0.42171697352995363  0.15738274239255645  1.0000
  O   O14       1.0  0.5028460836638119  0.5840272243654496  0.15672742373665463  1.0000
  O   O15       1.0  0.68622160311498  0.5864758103128979  0.07977856761849719  1.0000
  O   O16       1.0  0.6859431978024019  0.4241573636251773  0.08049786256058405  1.0000
  O   O17       1.0  0.5011828783059756  0.67562260512927  0.3393775655859911  1.0000
  O   O18       1.0  0.11984950473087963  0.3248663787731801  0.49986935043047936  1.0000
  O   O19       1.0  0.12036954380101152  0.6760202254145042  0.08027877440258638  1.0000
