data_image0
_chemical_formula_structural       Tm2H42C54O12
_chemical_formula_sum              "Tm2 H42 C54 O12"
_cell_length_a       7.843118218002677
_cell_length_b       11.343630088353285
_cell_length_c       12.925042122039489
_cell_angle_alpha    93.25536745618618
_cell_angle_beta     90.00000201953888
_cell_angle_gamma    89.99990581997172

_space_group_name_H-M_alt    "P 1"
_space_group_IT_number       1

loop_
  _space_group_symop_operation_xyz
  'x, y, z'

loop_
  _atom_site_type_symbol
  _atom_site_label
  _atom_site_symmetry_multiplicity
  _atom_site_fract_x
  _atom_site_fract_y
  _atom_site_fract_z
  _atom_site_occupancy
  Tm  Tm1       1.0  0.5343251172209448  0.5402395724351549  0.474111097752143  1.0000
  Tm  Tm2       1.0  0.0343314748408687  0.459761954537221  0.5258886748463567  1.0000
  H   H1        1.0  0.7107605367534545  0.127143401389354  0.6101028021429329  1.0000
  H   H2        1.0  0.21075061176281207  0.8728544901475741  0.38988748169600024  1.0000
  H   H3        1.0  0.37230187649002744  0.26549229775253014  0.6043284332605623  1.0000
  H   H4        1.0  0.8722963312229483  0.7345071585014509  0.3956634947867741  1.0000
  H   H5        1.0  0.5767299515006101  0.95962548560702  0.5969243417022767  1.0000
  H   H6        1.0  0.0767130713573181  0.040374251527879296  0.40307300758445314  1.0000
  H   H7        1.0  0.41375927050957984  0.7786932856241291  0.6255694924979167  1.0000
  H   H8        1.0  0.9137358134124796  0.22130515030423933  0.3744308889503785  1.0000
  H   H9        1.0  0.1043032577042737  0.789224480936802  0.6644977860448478  1.0000
  H   H10       1.0  0.6042823739993396  0.21077254312369575  0.3355025019416972  1.0000
  H   H11       1.0  0.9545936667075312  0.983632115974302  0.6707556709920866  1.0000
  H   H12       1.0  0.4545781154646065  0.016362823271371993  0.32923677208969343  1.0000
  H   H13       1.0  0.11765455067804709  0.16692299470437175  0.6389493226616167  1.0000
  H   H14       1.0  0.6176449458664592  0.8330731965701971  0.3610447277622555  1.0000
  H   H15       1.0  0.44405352852989205  0.6248876559314452  0.7562518819426387  1.0000
  H   H16       1.0  0.9440513774963719  0.37511779248200827  0.2437504545064684  1.0000
  H   H17       1.0  0.20984841698933107  0.45175369038783936  0.865106881781827  1.0000
  H   H18       1.0  0.7098433021008718  0.5482528679965524  0.1348993788144952  1.0000
  H   H19       1.0  0.48194904746477363  0.7313291527014838  0.9016835126746726  1.0000
  H   H20       1.0  0.9819484175235899  0.26867800187901025  0.09832047153111029  1.0000
  H   H21       1.0  0.5441104195417167  0.8264820510977273  0.0739302834858862  1.0000
  H   H22       1.0  0.0441085449937972  0.17352647912193214  0.9260745377065405  1.0000
  H   H23       1.0  0.4416436319774633  0.7351729652451195  0.23393318461943838  1.0000
  H   H24       1.0  0.9416392123447962  0.2648324450308337  0.7660730181540601  1.0000
  H   H25       1.0  0.27383431865745683  0.5498015981663754  0.2200346658063594  1.0000
  H   H26       1.0  0.7738269110420647  0.4502040204400543  0.7799699952806803  1.0000
  H   H27       1.0  0.21082250147799894  0.45327536631436505  0.0463765355584016  1.0000
  H   H28       1.0  0.7108148723357318  0.5467303161973189  0.9536289005879084  1.0000
  H   H29       1.0  0.6749168380833765  0.8154261618359371  0.7345142047024993  1.0000
  H   H30       1.0  0.1749174614577171  0.1845725473096279  0.2654861835994495  1.0000
  H   H31       1.0  0.9735099874240448  0.6691462353688706  0.8145460091855554  1.0000
  H   H32       1.0  0.47351153661632855  0.33084950791213424  0.1854518972814745  1.0000
  H   H33       1.0  0.7254526957517767  0.9569553077296575  0.8572882388345135  1.0000
  H   H34       1.0  0.2254549241171659  0.04304156954595581  0.1427128189261495  1.0000
  H   H35       1.0  0.7169940809626426  0.07170816010592058  0.0248886227615088  1.0000
  H   H36       1.0  0.21698277280979283  0.9282904845526685  0.9751133108352191  1.0000
  H   H37       1.0  0.8579114334885815  0.99539860130983  0.1801144465705065  1.0000
  H   H38       1.0  0.3578933793412985  0.0045972660456854  0.8198842364651497  1.0000
  H   H39       1.0  0.0103469799762692  0.801811360048205  0.16595563030065824  1.0000
  H   H40       1.0  0.5103388956611283  0.19818138133175003  0.8340420847735929  1.0000
  H   H41       1.0  0.0217061347253349  0.6869510857975383  0.9970899094831153  1.0000
  H   H42       1.0  0.5217066710750018  0.31304164258283856  0.002907805265039102  1.0000
  C   C1        1.0  0.699581085447477  0.3163654840437147  0.5919733053244585  1.0000
  C   C2        1.0  0.19957543381172374  0.683630613506274  0.4080207427483415  1.0000
  C   C3        1.0  0.6219156842061154  0.20053836745945117  0.6055282293714583  1.0000
  C   C4        1.0  0.12191230803559712  0.7994604922911532  0.39446365469007105  1.0000
  C   C5        1.0  0.45099133601848956  0.1864863095623335  0.6085731746677254  1.0000
  C   C6        1.0  0.9509805036758152  0.8135103996795294  0.3914193708594595  1.0000
  C   C7        1.0  0.359272843453553  0.07671423104383018  0.6194877992774153  1.0000
  C   C8        1.0  0.8592604759977861  0.9232825667647617  0.3805062953838885  1.0000
  C   C9        1.0  0.44107854021585524  0.9658707816299665  0.6150587522922493  1.0000
  C   C10       1.0  0.9410593513375786  0.0341258735236423  0.384939979527843  1.0000
  C   C11       1.0  0.34944801387874247  0.863785251028318  0.631376883793827  1.0000
  C   C12       1.0  0.8494273078609069  0.13620971853434577  0.3686240680668078  1.0000
  C   C13       1.0  0.17457878250564815  0.8699918126390215  0.6523401087923943  1.0000
  C   C14       1.0  0.6745619153581188  0.13000162380700428  0.34765765274011073  1.0000
  C   C15       1.0  0.09115265123234909  0.9789136951769206  0.6550765571992656  1.0000
  C   C16       1.0  0.5911373166493094  0.02108072782414179  0.3449204846472824  1.0000
  C   C17       1.0  0.18211243309627181  0.08154442706383948  0.6378527813790669  1.0000
  C   C18       1.0  0.6821013513508163  0.9184507911758287  0.36214276252614036  1.0000
  C   C19       1.0  0.27745029827683254  0.4974569519274396  0.6747576519435513  1.0000
  C   C20       1.0  0.7774503989943183  0.5025486788963603  0.3252454625375377  1.0000
  C   C21       1.0  0.35335371739561344  0.5540528404040829  0.7678687161213062  1.0000
  C   C22       1.0  0.8533488483320256  0.4459509213543952  0.23213584034165538  1.0000
  C   C23       1.0  0.2999272986193163  0.5252756212920388  0.8627184804504822  1.0000
  C   C24       1.0  0.7999236327563323  0.47472910088172426  0.1372845822145905  1.0000
  C   C25       1.0  0.3439798631400706  0.583908643264884  0.9619447498192457  1.0000
  C   C26       1.0  0.8439776070851506  0.416098677329657  0.0380584650947853  1.0000
  C   C27       1.0  0.4375509396843  0.690223654369241  0.971076607149108  1.0000
  C   C28       1.0  0.9375527597822354  0.30978445029761287  0.02892588299968679  1.0000
  C   C29       1.0  0.47186119121033704  0.7443501849247693  0.0680886323801886  1.0000
  C   C30       1.0  0.9718606248096081  0.25565523167637133  0.9319137032709008  1.0000
  C   C31       1.0  0.4131001848478705  0.6940462085691834  0.157832238682623  1.0000
  C   C32       1.0  0.9130969459155693  0.3059592507174925  0.842172418407877  1.0000
  C   C33       1.0  0.3193404061960052  0.5891508910355508  0.1502094092251269  1.0000
  C   C34       1.0  0.8193381944223859  0.41085380892918255  0.8497936528828305  1.0000
  C   C35       1.0  0.2848656599184523  0.5347843542424965  0.0531391854685523  1.0000
  C   C36       1.0  0.7848607733376838  0.46522130899680997  0.9468600625446016  1.0000
  C   C37       1.0  0.7921203914274385  0.6711154182335333  0.6415035558339781  1.0000
  C   C38       1.0  0.29211940206609205  0.328881390956539  0.3584967267625458  1.0000
  C   C39       1.0  0.7773366385380381  0.7504559594780674  0.7351722211720642  1.0000
  C   C40       1.0  0.27733838319255005  0.2495435236187333  0.2648274421107644  1.0000
  C   C41       1.0  0.8790168740385624  0.7402581185403035  0.8186742859273792  1.0000
  C   C42       1.0  0.3790173162897617  0.2597385748828315  0.1813275406775574  1.0000
  C   C43       1.0  0.8728521505334043  0.8124922388033367  0.9153215594557693  1.0000
  C   C44       1.0  0.3728553098723282  0.18750709412914546  0.0846819673412611  1.0000
  C   C45       1.0  0.7875951141998526  0.92204374874877  0.9246007521847375  1.0000
  C   C46       1.0  0.28759088231409896  0.07795658919663138  0.0754005084769176  1.0000
  C   C47       1.0  0.7831911587370897  0.9871366394881492  0.019052077828092696  1.0000
  C   C48       1.0  0.2831820163852896  0.012864586437046898  0.9809492341310602  1.0000
  C   C49       1.0  0.8629872798047273  0.9442943483057673  0.1062167934543581  1.0000
  C   C50       1.0  0.3629754826795732  0.0557023879993181  0.8937827138576324  1.0000
  C   C51       1.0  0.9483131648688926  0.8359807040223756  0.0983471123176969  1.0000
  C   C52       1.0  0.4483062118352521  0.1640150190133411  0.9016554343787675  1.0000
  C   C53       1.0  0.9545033795900792  0.7712549100809413  0.003489005429990817  1.0000
  C   C54       1.0  0.4544975521686325  0.22873907271129915  0.996510345742557  1.0000
  O   O1        1.0  0.6036395448910951  0.40731526056485723  0.5863912893340526  1.0000
  O   O2        1.0  0.1036404836454352  0.5926800637976226  0.41360271032080925  1.0000
  O   O3        1.0  0.8623262993705935  0.32142671916320603  0.5865565431224198  1.0000
  O   O4        1.0  0.3623206599157314  0.6785735741876876  0.4134408491395121  1.0000
  O   O5        1.0  0.3058330869948662  0.5426175780694109  0.5853241082431069  1.0000
  O   O6        1.0  0.805825648040731  0.4573871455295445  0.41467818100149867  1.0000
  O   O7        1.0  0.17221929340873032  0.41249289671407025  0.6774137117769854  1.0000
  O   O8        1.0  0.6722230180334989  0.5875155033066619  0.3225895592369739  1.0000
  O   O9        1.0  0.6705717922820612  0.6734981614528479  0.5751090279564792  1.0000
  O   O10       1.0  0.17057463617603472  0.3264969963689025  0.424893475539065  1.0000
  O   O11       1.0  0.921459335084272  0.6035181326158036  0.6297620251920577  1.0000
  O   O12       1.0  0.421456911266013  0.3964820685488347  0.3702376851260282  1.0000
