data_image0
_chemical_formula_structural       NiH32C26N4O8
_chemical_formula_sum              "Ni1 H32 C26 N4 O8"
_cell_length_a       8.02741404128225
_cell_length_b       8.9348979867956
_cell_length_c       10.597337487534448
_cell_angle_alpha    90.84223635994772
_cell_angle_beta     74.11186516629965
_cell_angle_gamma    91.74079263739038

_space_group_name_H-M_alt    "P 1"
_space_group_IT_number       1

loop_
  _space_group_symop_operation_xyz
  'x, y, z'

loop_
  _atom_site_type_symbol
  _atom_site_label
  _atom_site_symmetry_multiplicity
  _atom_site_fract_x
  _atom_site_fract_y
  _atom_site_fract_z
  _atom_site_occupancy
  Ni  Ni1       1.0  0.4999939353952029  0.4999958809142554  0.5000013349432706  1.0000
  H   H1        1.0  0.2701687166066335  0.8148669535035041  0.08693806634124002  1.0000
  H   H2        1.0  0.7298292588126285  0.1851375797669803  0.9130701460673407  1.0000
  H   H3        1.0  0.5041157705615688  0.37051132610086057  0.2884528692034536  1.0000
  H   H4        1.0  0.49588874285316814  0.6294988595480575  0.7115436596659138  1.0000
  H   H5        1.0  0.3743960349532927  0.4000746892639526  0.044393356465590686  1.0000
  H   H6        1.0  0.6256226213304571  0.5999250921129118  0.9556201460335174  1.0000
  H   H7        1.0  0.32058419419865897  0.18403479893024874  0.19701272668248754  1.0000
  H   H8        1.0  0.6793981691796772  0.8159659855781458  0.8030071012948881  1.0000
  H   H9        1.0  0.25188970912852676  0.891696546549568  0.8871373772783215  1.0000
  H   H10       1.0  0.7481121459289922  0.10830592332229119  0.11287288688421174  1.0000
  H   H11       1.0  0.3077743441879689  0.1092298860954273  0.7344597282623724  1.0000
  H   H12       1.0  0.6922495596883492  0.8907732954776222  0.2655442338044693  1.0000
  H   H13       1.0  0.7030692738152452  0.28728404714543393  0.6575619317620821  1.0000
  H   H14       1.0  0.29693515431839035  0.7127262400081876  0.342441220614255  1.0000
  H   H15       1.0  0.8776453956864215  0.4954719263724953  0.2885693981135944  1.0000
  H   H16       1.0  0.12235589571844227  0.5045031990535591  0.7114116881789556  1.0000
  H   H17       1.0  0.15045637408906737  0.342041591718754  0.3396104905652564  1.0000
  H   H18       1.0  0.84954063423843  0.657947089684299  0.6603884580727241  1.0000
  H   H19       1.0  0.971607979290873  0.17086834333704812  0.6790242129948113  1.0000
  H   H20       1.0  0.028388719785240792  0.8291383259728633  0.3209804826603957  1.0000
  H   H21       1.0  0.17158508940983808  0.2476645309324042  0.5799961582528965  1.0000
  H   H22       1.0  0.8284129495010645  0.7523388255289661  0.4200082649367047  1.0000
  H   H23       1.0  0.16744373123992767  0.060512455330425  0.4039195836149645  1.0000
  H   H24       1.0  0.8325581673965134  0.9394921651502628  0.5960850119715673  1.0000
  H   H25       1.0  0.15613080860429562  0.9713640821617913  0.5535438628666541  1.0000
  H   H26       1.0  0.8438671546319509  0.028640465609363695  0.44646529575720717  1.0000
  H   H27       1.0  0.660414018853217  0.18405374381978845  0.3426528261983606  1.0000
  H   H28       1.0  0.33958975824720733  0.8159458214770511  0.6573108053075813  1.0000
  H   H29       1.0  0.4658619897928276  0.0887117603286285  0.33075206573263927  1.0000
  H   H30       1.0  0.5341378216884178  0.9112954768996462  0.669210482023857  1.0000
  H   H31       1.0  0.48973295168298847  0.14687765894660035  0.4877130526504914  1.0000
  H   H32       1.0  0.5102801381927548  0.8531009975252958  0.5122515189577612  1.0000
  C   C1        1.0  0.38769997034395215  0.3955322496436793  0.7839112014719517  1.0000
  C   C2        1.0  0.6123070425717216  0.604470423512467  0.21609991755288147  1.0000
  C   C3        1.0  0.34260995635265346  0.26896187872021937  0.8792247702701843  1.0000
  C   C4        1.0  0.6573904658592724  0.7310473184221493  0.12078956429262183  1.0000
  C   C5        1.0  0.3437669615831993  0.2894675252225626  0.010599677192601594  1.0000
  C   C6        1.0  0.6562296875839307  0.7105292923395864  0.98941917247123  1.0000
  C   C7        1.0  0.31424130323061666  0.16878374986120553  0.09625121463817268  1.0000
  C   C8        1.0  0.6857462416720778  0.8312227159582478  0.9037619202684724  1.0000
  C   C9        1.0  0.2828434097801774  0.025426196126282698  0.05119723524234842  1.0000
  C   C10       1.0  0.7171428768153377  0.9745746755923083  0.9488189759129853  1.0000
  C   C11       1.0  0.27688832767793764  0.003850602045730499  0.9213669747518908  1.0000
  C   C12       1.0  0.723114707435542  0.9961597575425287  0.07864400673877725  1.0000
  C   C13       1.0  0.307563704407542  0.12493532338164208  0.8365955570508348  1.0000
  C   C14       1.0  0.6924419546135779  0.8750662744013694  0.16342149429991085  1.0000
  C   C15       1.0  0.7852693426202035  0.32604004307535916  0.5642320354751931  1.0000
  C   C16       1.0  0.21472750592846518  0.6739598408926355  0.4357679029565276  1.0000
  C   C17       1.0  0.8812405514671013  0.4293573001442114  0.3724489835323155  1.0000
  C   C18       1.0  0.11875935910062202  0.5706178832158032  0.627538985659278  1.0000
  C   C19       1.0  0.016178119676524706  0.35262106926573017  0.3945277182719238  1.0000
  C   C20       1.0  0.9838060549206703  0.6473670314232293  0.6054643621339011  1.0000
  C   C21       1.0  0.049714867059876204  0.1898259692153133  0.5776917232711369  1.0000
  C   C22       1.0  0.9502792652701686  0.8101805839517836  0.422311598737636  1.0000
  C   C23       1.0  0.08317044162487258  0.041122461631410104  0.5036497021354336  1.0000
  C   C24       1.0  0.9168224028788359  0.9588807350476783  0.4963567048377157  1.0000
  C   C25       1.0  0.5187296613469243  0.17683929682245753  0.38374202343715064  1.0000
  C   C26       1.0  0.4812727766185318  0.8231580742948168  0.6162275360368596  1.0000
  N   N1        1.0  0.9533766138638741  0.28855529092901133  0.5164656418265847  1.0000
  N   N2        1.0  0.04662286234592731  0.7114446366784435  0.4835309391751537  1.0000
  N   N3        1.0  0.738048853671252  0.4128700531650864  0.4793506599992554  1.0000
  N   N4        1.0  0.26195346574044726  0.5871208516250447  0.520634958987479  1.0000
  O   O1        1.0  0.3998916407566213  0.3618411266654605  0.6635805076793773  1.0000
  O   O2        1.0  0.6000906853728479  0.638165208373053  0.3364365034413836  1.0000
  O   O3        1.0  0.4146180513273094  0.5260533376339183  0.8257606908679449  1.0000
  O   O4        1.0  0.5854240423420835  0.473943784592912  0.1742424522087376  1.0000
  O   O5        1.0  0.2614422640013103  0.9082060245661129  0.1370182099430579  1.0000
  O   O6        1.0  0.7385337260907932  0.0917966201940601  0.862992515342235  1.0000
  O   O7        1.0  0.4410573269317907  0.31696824593639417  0.3753016446598707  1.0000
  O   O8        1.0  0.5589435961833616  0.683029342622234  0.6246852060812813  1.0000
