data_image0
_chemical_formula_structural       H32Pb2C54N8O8
_chemical_formula_sum              "H32 Pb2 C54 N8 O8"
_cell_length_a       9.223161450439145
_cell_length_b       9.179296811998341
_cell_length_c       15.532964567624932
_cell_angle_alpha    101.52884064161124
_cell_angle_beta     91.52138067824302
_cell_angle_gamma    111.88588067306506

_space_group_name_H-M_alt    "P 1"
_space_group_IT_number       1

loop_
  _space_group_symop_operation_xyz
  'x, y, z'

loop_
  _atom_site_type_symbol
  _atom_site_label
  _atom_site_symmetry_multiplicity
  _atom_site_fract_x
  _atom_site_fract_y
  _atom_site_fract_z
  _atom_site_occupancy
  H   H1        1.0  0.3868213583287315  0.69338130309481  0.9323003921050557  1.0000
  H   H2        1.0  0.6131842429970432  0.30661687925678643  0.0677063826266675  1.0000
  H   H3        1.0  0.5507723338282844  0.9051577573196566  0.8569958386932798  1.0000
  H   H4        1.0  0.4492407212928384  0.09482926129189909  0.14300455718090893  1.0000
  H   H5        1.0  0.8064301139790545  0.11647572219447254  0.9367893158702713  1.0000
  H   H6        1.0  0.19358864595910322  0.8835038497529765  0.0632076926818286  1.0000
  H   H7        1.0  0.7270169139754685  0.9059248841912788  0.162413770249735  1.0000
  H   H8        1.0  0.27299026081819017  0.09408294229434938  0.8375909256004164  1.0000
  H   H9        1.0  0.4693933269006936  0.4945336395326977  0.36910368785582653  1.0000
  H   H10       1.0  0.5305943710971661  0.5054551258462964  0.630896016806382  1.0000
  H   H11       1.0  0.47039688538185237  0.6088093649192317  0.5304240082590823  1.0000
  H   H12       1.0  0.5295862663281312  0.39116495926966605  0.4695771863984106  1.0000
  H   H13       1.0  0.256156260417434  0.6979930717130852  0.5785448979617982  1.0000
  H   H14       1.0  0.7438298061737143  0.30198852410385507  0.4214603927959359  1.0000
  H   H15       1.0  0.015496620036436998  0.5071910053482185  0.0667041075249983  1.0000
  H   H16       1.0  0.9845185037487738  0.4928178323543405  0.9332982096123885  1.0000
  H   H17       1.0  0.8004025385512464  0.6099418796740321  0.0892182878771095  1.0000
  H   H18       1.0  0.19960919608056577  0.3900584814062071  0.9107797879331586  1.0000
  H   H19       1.0  0.7413776034261588  0.6936019673991678  0.2445947751559245  1.0000
  H   H20       1.0  0.25862429474018  0.30640101621536786  0.7554022214245606  1.0000
  H   H21       1.0  0.9361147596155207  0.8954543372876597  0.6995873935236787  1.0000
  H   H22       1.0  0.0638872106384838  0.10456809501532396  0.3004125157830586  1.0000
  H   H23       1.0  0.823738157231233  0.040578053128804484  0.8058229978176854  1.0000
  H   H24       1.0  0.17624092644886963  0.9594277864104936  0.19416959904849307  1.0000
  H   H25       1.0  0.6077439466380881  0.12274106539797455  0.757748766536956  1.0000
  H   H26       1.0  0.39223152544904144  0.8772527346073246  0.2422449658304515  1.0000
  H   H27       1.0  0.5113837983172118  0.05428046673026899  0.5992583053654175  1.0000
  H   H28       1.0  0.4885889994124283  0.9457011874952668  0.400730121004031  1.0000
  H   H29       1.0  0.6308326238090843  0.9078219518654932  0.4874515541798843  1.0000
  H   H30       1.0  0.36916135560540647  0.09217752929519919  0.5125430240038114  1.0000
  H   H31       1.0  0.035555581986805876  0.7895863495878928  0.6003602354892763  1.0000
  H   H32       1.0  0.9644341473610113  0.21041576448880756  0.3996429775755814  1.0000
  Pb  Pb1       1.0  0.25532521720052165  0.38351314906197587  0.1623269125143452  1.0000
  Pb  Pb2       1.0  0.7446782835274988  0.6164716429295608  0.8376731290757461  1.0000
  C   C1        1.0  0.44705529174640907  0.6625981274278059  0.09809725225223077  1.0000
  C   C2        1.0  0.552959685622163  0.3373962357276738  0.9019111014302013  1.0000
  C   C3        1.0  0.547198434097993  0.7858746657131944  0.05152400216971389  1.0000
  C   C4        1.0  0.45280555898636987  0.21410289420921194  0.948480351577885  1.0000
  C   C5        1.0  0.4984223105092624  0.7855585645272001  0.9651755532631086  1.0000
  C   C6        1.0  0.5015832769669544  0.21443960949192586  0.034830576520818106  1.0000
  C   C7        1.0  0.5908577615900724  0.9036415848658873  0.9233330488675334  1.0000
  C   C8        1.0  0.4091563969612508  0.09634542748954539  0.0766686448810461  1.0000
  C   C9        1.0  0.7325756325183976  0.021449573587474905  0.967188380370395  1.0000
  C   C10       1.0  0.26743994884961353  0.9785410537507956  0.03281374905881763  1.0000
  C   C11       1.0  0.7828482881896335  0.02177672319638899  0.0531299343420244  1.0000
  C   C12       1.0  0.21715335022300752  0.9782142271131773  0.9468740262062525  1.0000
  C   C13       1.0  0.9363234310077007  0.14751692406678527  0.09929619919599018  1.0000
  C   C14       1.0  0.06368495347879116  0.8524774932904077  0.9007056571356884  1.0000
  C   C15       1.0  0.6890640491759186  0.9046648396111008  0.09519638123592959  1.0000
  C   C16       1.0  0.3109322105813207  0.09532622530380046  0.9048075394183783  1.0000
  C   C17       1.0  0.37712169713403654  0.5352757911982452  0.3924234231227075  1.0000
  C   C18       1.0  0.6228695889922237  0.46471655165392173  0.6075773781255193  1.0000
  C   C19       1.0  0.37681322241325427  0.5978198709357726  0.4825913506619699  1.0000
  C   C20       1.0  0.6231731220157144  0.402165321122723  0.5174111430586095  1.0000
  C   C21       1.0  0.25819433792358376  0.6486522150161063  0.508820916769757  1.0000
  C   C22       1.0  0.7417903154658846  0.351334219546338  0.4911810612723002  1.0000
  C   C23       1.0  0.14359420698609424  0.6408175568570156  0.4443567627844871  1.0000
  C   C24       1.0  0.856397453924899  0.3591784405640082  0.5556457560611676  1.0000
  C   C25       1.0  0.1547890563880117  0.5792111674538629  0.35391602782542003  1.0000
  C   C26       1.0  0.8452143711569419  0.4208039431991607  0.6460830420352366  1.0000
  C   C27       1.0  0.04911412952058911  0.5818828163376321  0.2834174001839073  1.0000
  C   C28       1.0  0.9508839609176364  0.41813243391814575  0.7165835646261698  1.0000
  C   C29       1.0  0.9880833028587049  0.5465889918378435  0.1328421566979117  1.0000
  C   C30       1.0  0.011928064062793455  0.45341867630375526  0.8671574114850314  1.0000
  C   C31       1.0  0.8671489272308293  0.6040775348224797  0.14643192699041663  1.0000
  C   C32       1.0  0.13286037386645694  0.39592772125421044  0.8535654079165838  1.0000
  C   C33       1.0  0.8356052658007442  0.6499053417381331  0.23199747923293046  1.0000
  C   C34       1.0  0.16439768039755623  0.350097602290397  0.7679982354307455  1.0000
  C   C35       1.0  0.9285493990564718  0.6414257939722603  0.3029610713961475  1.0000
  C   C36       1.0  0.07145923840858605  0.3585916099876413  0.6970363859900388  1.0000
  C   C37       1.0  0.915486629997318  0.6975000529859159  0.3944088958421901  1.0000
  C   C38       1.0  0.084525052076124  0.30251968179053523  0.6055862881641474  1.0000
  C   C39       1.0  0.020584934908242734  0.6965142584217288  0.4609787044681468  1.0000
  C   C40       1.0  0.9794125885453866  0.3034912831165855  0.5390211224633106  1.0000
  C   C41       1.0  0.8581296159305368  0.8085573370928925  0.5177713412769904  1.0000
  C   C42       1.0  0.1418722754606634  0.1914565998193893  0.4822282203257942  1.0000
  C   C43       1.0  0.7897284863266806  0.8906860703237099  0.5844032711164503  1.0000
  C   C44       1.0  0.21026066756743939  0.1093232258273034  0.4155917601041068  1.0000
  C   C45       1.0  0.8431021827394787  0.9278743858550341  0.674786067586176  1.0000
  C   C46       1.0  0.1568915770753065  0.0721409394200734  0.3252135754131373  1.0000
  C   C47       1.0  0.7776802229575709  0.010271783363378995  0.7365414493270706  1.0000
  C   C48       1.0  0.222303579980263  0.9897376440579106  0.2634548318951104  1.0000
  C   C49       1.0  0.6577170995011558  0.05552018522928389  0.7099639051953304  1.0000
  C   C50       1.0  0.34226246268573135  0.9444784139084134  0.2900323588805662  1.0000
  C   C51       1.0  0.6038349638012407  0.017677984331442093  0.6201301340415242  1.0000
  C   C52       1.0  0.3961508122484502  0.9823253514315836  0.3798673878048433  1.0000
  C   C53       1.0  0.6697132528192286  0.9370009893309754  0.5577506456997838  1.0000
  C   C54       1.0  0.3302691273019179  0.06300482310747667  0.44224519984177135  1.0000
  N   N1        1.0  0.26893326184177374  0.5252473994646891  0.3308534808362253  1.0000
  N   N2        1.0  0.7310647220345317  0.4747593387354384  0.6691458463743061  1.0000
  N   N3        1.0  0.07472387078887972  0.5340272746747414  0.19884106718485836  1.0000
  N   N4        1.0  0.9252769146315316  0.4659891763955243  0.8011632835486822  1.0000
  N   N5        1.0  0.9818915376821096  0.767356857763545  0.5385985384186682  1.0000
  N   N6        1.0  0.01811200319990998  0.23265581164737625  0.4613996040192276  1.0000
  N   N7        1.0  0.8153155437670421  0.7665693485910551  0.43057361720337173  1.0000
  N   N8        1.0  0.184690384866272  0.23344684622188788  0.5694198093115688  1.0000
  O   O1        1.0  0.3200539561672429  0.5517536139836919  0.05456965079191888  1.0000
  O   O2        1.0  0.6799605703936747  0.4482480062383302  0.945436325576388  1.0000
  O   O3        1.0  0.48954784025330156  0.6714762071305952  0.1781339449654737  1.0000
  O   O4        1.0  0.5104877334321428  0.32851279637804953  0.8218694807295392  1.0000
  O   O5        1.0  0.9704945204991589  0.16326032911113936  0.18141930824118901  1.0000
  O   O6        1.0  0.029501975846493236  0.8367562219758753  0.81858565552497  1.0000
  O   O7        1.0  0.027360305137733604  0.23487282513551827  0.052042854226527914  1.0000
  O   O8        1.0  0.9726540733125834  0.7651202580334555  0.9479595496988438  1.0000
