data_image0
_chemical_formula_structural       CuH28C22N2O4
_chemical_formula_sum              "Cu1 H28 C22 N2 O4"
_cell_length_a       7.091644349760562
_cell_length_b       8.65431314753421
_cell_length_c       9.435242603833517
_cell_angle_alpha    94.71296778968676
_cell_angle_beta     96.71807478110334
_cell_angle_gamma    95.21716834180256

_space_group_name_H-M_alt    "P 1"
_space_group_IT_number       1

loop_
  _space_group_symop_operation_xyz
  'x, y, z'

loop_
  _atom_site_type_symbol
  _atom_site_label
  _atom_site_symmetry_multiplicity
  _atom_site_fract_x
  _atom_site_fract_y
  _atom_site_fract_z
  _atom_site_occupancy
  Cu  Cu1       1.0  3.4673912595102126e-06  0.9999960104465517  0.9999974498024287  1.0000
  H   H1        1.0  0.6241384970847434  0.48015294127090163  0.3361298377206198  1.0000
  H   H2        1.0  0.3758633003689199  0.519841651941839  0.6638531139518024  1.0000
  H   H3        1.0  0.38156842178761263  0.45151596704702973  0.3671993653489807  1.0000
  H   H4        1.0  0.6184402899200662  0.5484791430593817  0.6327970626769002  1.0000
  H   H5        1.0  0.43914083569853096  0.502248615350446  0.19730727356009942  1.0000
  H   H6        1.0  0.5608432763223875  0.49773566287284166  0.802684522839435  1.0000
  H   H7        1.0  0.7664266092946619  0.2837814372838067  0.17722490925278578  1.0000
  H   H8        1.0  0.23356700264371008  0.7162156389339672  0.822761705268384  1.0000
  H   H9        1.0  0.5869108581094127  0.3098886860478346  0.03498789663860443  1.0000
  H   H10       1.0  0.4130711327536503  0.6901084056214657  0.9650092096874943  1.0000
  H   H11       1.0  0.6191230387657003  0.12009195017048316  0.08366246378068351  1.0000
  H   H12       1.0  0.3808800644605698  0.8799097280398203  0.9163181476462512  1.0000
  H   H13       1.0  0.6763278611507247  0.20963896480089525  0.41616570146761933  1.0000
  H   H14       1.0  0.3236974039841769  0.7903605054762367  0.5838254132310183  1.0000
  H   H15       1.0  0.5281083358602388  0.04280665841428542  0.3291559286389684  1.0000
  H   H16       1.0  0.47191153074441433  0.9571869683678006  0.6708393577295269  1.0000
  H   H17       1.0  0.43342648695794145  0.18136386870278906  0.4450820276901339  1.0000
  H   H18       1.0  0.5665955439454606  0.8186352255315086  0.5549235689243872  1.0000
  H   H19       1.0  0.8989106296757328  0.03262739948653602  0.28869306716674  1.0000
  H   H20       1.0  0.10108791461455986  0.9673740523534848  0.7112987258321084  1.0000
  H   H21       1.0  0.8862867283846256  0.8670692415809287  0.49481823103455724  1.0000
  H   H22       1.0  0.11371010771411251  0.13295647516596895  0.5051874830905873  1.0000
  H   H23       1.0  0.06585252609513505  0.49330687193644723  0.22395892632657416  1.0000
  H   H24       1.0  0.9341311422767903  0.5067023815448409  0.7760597157391373  1.0000
  H   H25       1.0  0.06325287105953244  0.6729710767999678  0.030013961735598112  1.0000
  H   H26       1.0  0.9367276282749303  0.32701145881588195  0.9699985043367859  1.0000
  H   H27       1.0  0.9365305766249463  0.6334284357663194  0.597867012042741  1.0000
  H   H28       1.0  0.06345773504698124  0.3665830005183326  0.40215231793152384  1.0000
  C   C1        1.0  0.27614329482810973  0.19282561501658796  0.1680578459780406  1.0000
  C   C2        1.0  0.7238494568975115  0.8071513071974082  0.8319351480803832  1.0000
  C   C3        1.0  0.47839533131034545  0.2611566459834692  0.2354333181191208  1.0000
  C   C4        1.0  0.5216090932610558  0.7388467376791895  0.7645656255228203  1.0000
  C   C5        1.0  0.4798498912307281  0.4337926915352314  0.2871657202832054  1.0000
  C   C6        1.0  0.5201538588839156  0.56619800917953  0.7128265833951986  1.0000
  C   C7        1.0  0.6211740165034954  0.24192761904683383  0.12652526721176827  1.0000
  C   C8        1.0  0.37882224652353363  0.7580682302633833  0.8734604320618259  1.0000
  C   C9        1.0  0.5316996562877138  0.16751063126879023  0.36400857090760036  1.0000
  C   C10       1.0  0.46831831445852873  0.8324878831125135  0.6359827711300596  1.0000
  C   C11       1.0  0.9328603685714469  0.9122089530559592  0.28030336866076055  1.0000
  C   C12       1.0  0.06712368161478821  0.08779981186501831  0.7196940537769477  1.0000
  C   C13       1.0  0.9278275487198046  0.8201122199859584  0.3936319971179429  1.0000
  C   C14       1.0  0.07217040044564273  0.17990398713820352  0.6063760591111276  1.0000
  C   C15       1.0  0.9776811413322052  0.6664272711199715  0.3783903300184051  1.0000
  C   C16       1.0  0.022320522135927914  0.33358632793706994  0.6216220825432615  1.0000
  C   C17       1.0  0.02664036192655323  0.6115756987074621  0.24397140542539117  1.0000
  C   C18       1.0  0.9733569679050409  0.3884297481325093  0.7560429344507896  1.0000
  C   C19       1.0  0.02709086172907865  0.7104010469069096  0.13569083118269282  1.0000
  C   C20       1.0  0.9728922491505899  0.28959565870406584  0.8643169543987171  1.0000
  C   C21       1.0  0.9771679129179917  0.5742882282461679  0.5004910062909431  1.0000
  C   C22       1.0  0.022846180298905904  0.42573186627716814  0.4995264944335602  1.0000
  N   N1        1.0  0.983009800842062  0.8585954396401264  0.15365154868582917  1.0000
  N   N2        1.0  0.016977172225601612  0.14139789918824874  0.8463478066416954  1.0000
  O   O1        1.0  0.2687536942013224  0.07122190219227063  0.07807633584572929  1.0000
  O   O2        1.0  0.731250439638494  0.9287802162139657  0.9219256331626015  1.0000
  O   O3        1.0  0.12957897394200302  0.25081603327484453  0.20324708745769018  1.0000
  O   O4        1.0  0.8704266720310444  0.749169779840699  0.796749160551542  1.0000
