data_image0
_chemical_formula_structural       Al4H20C64O20F16
_chemical_formula_sum              "Al4 H20 C64 O20 F16"
_cell_length_a       6.703397011032303
_cell_length_b       23.51833309890506
_cell_length_c       26.29201230716667
_cell_angle_alpha    78.46689255851183
_cell_angle_beta     89.99991995025236
_cell_angle_gamma    89.99996794815856

_space_group_name_H-M_alt    "P 1"
_space_group_IT_number       1

loop_
  _space_group_symop_operation_xyz
  'x, y, z'

loop_
  _atom_site_type_symbol
  _atom_site_label
  _atom_site_symmetry_multiplicity
  _atom_site_fract_x
  _atom_site_fract_y
  _atom_site_fract_z
  _atom_site_occupancy
  Al  Al1       1.0  0.8000827011100569  0.7503198357783704  0.24945177862968387  1.0000
  Al  Al2       1.0  0.1999109165785669  0.24967830883844755  0.7505505831758512  1.0000
  Al  Al3       1.0  0.30008544836336165  0.7496791427926798  0.25055068147700144  1.0000
  Al  Al4       1.0  0.6999156282317287  0.25031713008866063  0.7494524646022498  1.0000
  H   H1        1.0  0.2655661909737219  0.364207741576756  0.8441465947857125  1.0000
  H   H2        1.0  0.7344393609366194  0.6357928722712388  0.15585614332984218  1.0000
  H   H3        1.0  0.7655639299749452  0.13578927465879082  0.6558573100953636  1.0000
  H   H4        1.0  0.23443416307166837  0.8642019778345328  0.3441474104563724  1.0000
  H   H5        1.0  0.284490833470592  0.42975705832210315  0.9074017743330672  1.0000
  H   H6        1.0  0.7154953253173986  0.5702430426251438  0.09259941502250509  1.0000
  H   H7        1.0  0.7845036716661156  0.07023810151181216  0.5926048792879186  1.0000
  H   H8        1.0  0.21550635561720807  0.9297586816044899  0.4073978766420794  1.0000
  H   H9        1.0  0.7649057595271103  0.5825523573182707  0.9952570115228312  1.0000
  H   H10       1.0  0.23508189106284758  0.41743761826049314  0.0047477149590022995  1.0000
  H   H11       1.0  0.2648842604996204  0.917447249386754  0.5047413545388294  1.0000
  H   H12       1.0  0.7351197997342638  0.08254586952196523  0.4952587039439109  1.0000
  H   H13       1.0  0.3353359542959353  0.5269689801088476  0.46130154642666094  1.0000
  H   H14       1.0  0.6646934661063926  0.47302874154522095  0.5387027562842731  1.0000
  H   H15       1.0  0.8353039270625615  0.9730526893683233  0.03871791832196439  1.0000
  H   H16       1.0  0.16468969064274572  0.0269466449023312  0.9612828868204915  1.0000
  H   H17       1.0  0.5512763630809374  0.6735846042846917  0.2649765279873151  1.0000
  H   H18       1.0  0.4487187464270548  0.3264136222652851  0.7350235067408022  1.0000
  H   H19       1.0  0.05127841311730919  0.826415217538795  0.23501706017174226  1.0000
  H   H20       1.0  0.9487181882944355  0.17358146766662938  0.7649763894145634  1.0000
  C   C1        1.0  0.5486317781302574  0.8255534348779107  0.172689178690824  1.0000
  C   C2        1.0  0.45136929845064333  0.1744421585815702  0.8273151338962135  1.0000
  C   C3        1.0  0.04861673307143379  0.674443929253705  0.32731372409394055  1.0000
  C   C4        1.0  0.9513739011037713  0.3255497025447766  0.6726878831266208  1.0000
  C   C5        1.0  0.5511819717361632  0.8129810955270927  0.312271540425705  1.0000
  C   C6        1.0  0.4488340226334557  0.1870113519506234  0.6877355012793984  1.0000
  C   C7        1.0  0.051156496038991896  0.6870132115787296  0.18773564563013417  1.0000
  C   C8        1.0  0.9488251873911366  0.31298382797521646  0.8122678846541689  1.0000
  C   C9        1.0  0.13216773838122722  0.37462609391247537  0.8639952043274022  1.0000
  C   C10       1.0  0.8678273711542914  0.6253744273502164  0.1360021052508102  1.0000
  C   C11       1.0  0.6321722764714863  0.1253727020981401  0.6360057972247971  1.0000
  C   C12       1.0  0.3678347672966922  0.8746247577767436  0.36399385329323036  1.0000
  C   C13       1.0  0.1422169823951123  0.41091322450907347  0.899503293327818  1.0000
  C   C14       1.0  0.8577885695528452  0.5890850893016335  0.10049829213328108  1.0000
  C   C15       1.0  0.6422262726165683  0.0890798784216642  0.6005004627819872  1.0000
  C   C16       1.0  0.357780771114932  0.9109123099436401  0.39950386564145657  1.0000
  C   C17       1.0  0.9705561584080443  0.4245297417043971  0.9254367331956672  1.0000
  C   C18       1.0  0.029441934625985804  0.5754655953069515  0.07456680501590539  1.0000
  C   C19       1.0  0.4705705651270122  0.07546434504982358  0.5745659116753002  1.0000
  C   C20       1.0  0.5294364786152883  0.924532266213305  0.4254356817030001  1.0000
  C   C21       1.0  0.7913861916188835  0.39900346616337146  0.9145837573630332  1.0000
  C   C22       1.0  0.2086104096142023  0.6009877889917375  0.08542290208987419  1.0000
  C   C23       1.0  0.2914043038633807  0.10099645690368672  0.5854166789218168  1.0000
  C   C24       1.0  0.708617657609942  0.8990018622370856  0.4145887843547199  1.0000
  C   C25       1.0  0.7802613809542647  0.3627151333783588  0.8786343762719824  1.0000
  C   C26       1.0  0.21973820390337548  0.637275606221209  0.12136879553388269  1.0000
  C   C27       1.0  0.2802777098186695  0.13728801282235992  0.6213629277026982  1.0000
  C   C28       1.0  0.7197308256453708  0.8627020526829129  0.378645288421346  1.0000
  C   C29       1.0  0.951024598980645  0.3501750961130696  0.8521750394018569  1.0000
  C   C30       1.0  0.0489734940056792  0.6498271356855697  0.14782807896870756  1.0000
  C   C31       1.0  0.4510293977269696  0.14982748764077064  0.6478256006009531  1.0000
  C   C32       1.0  0.5489731705605507  0.8501684521858552  0.352182975988633  1.0000
  C   C33       1.0  0.8534664567362213  0.5097464253375747  0.9629353508578687  1.0000
  C   C34       1.0  0.1465197020602886  0.49024099908084656  0.0370713263994134  1.0000
  C   C35       1.0  0.3534904531360326  0.9902443948735425  0.5370686049313277  1.0000
  C   C36       1.0  0.6465061481888837  0.009750085538691193  0.4629310594329894  1.0000
  C   C37       1.0  0.8679522603829993  0.5462003041698085  0.998181689647282  1.0000
  C   C38       1.0  0.13203986551140903  0.45378958947779324  0.0018253639159908994  1.0000
  C   C39       1.0  0.3679362493416818  0.9537975870402564  0.5018191505831736  1.0000
  C   C40       1.0  0.6320618436964978  0.04619970630401581  0.49818321518348085  1.0000
  C   C41       1.0  0.0172341425332192  0.5372708236526051  0.03644888635319181  1.0000
  C   C42       1.0  0.982754999853583  0.4627179596105364  0.9635554578905425  1.0000
  C   C43       1.0  0.5172223247283229  0.9627177529358448  0.4635551781390461  1.0000
  C   C44       1.0  0.48278024366111066  0.037276817397909716  0.5364479758573992  1.0000
  C   C45       1.0  0.188704142636567  0.5152914154832546  0.47791368585255606  1.0000
  C   C46       1.0  0.811319310708825  0.48470111126732707  0.5220890898769852  1.0000
  C   C47       1.0  0.688690389421609  0.9847173707537635  0.0220940068317432  1.0000
  C   C48       1.0  0.3113077036399474  0.015280260970300184  0.9779068062299316  1.0000
  C   C49       1.0  0.0180251361129109  0.5457477299420715  0.4558866560938668  1.0000
  C   C50       1.0  0.9819983172583662  0.4542456454202721  0.544114176775409  1.0000
  C   C51       1.0  0.5180111271046073  0.9542530187966066  0.044116189523109  1.0000
  C   C52       1.0  0.4819869659677991  0.045745717986335484  0.9558834550517402  1.0000
  C   C53       1.0  0.832022613880028  0.5290639230967926  0.4792433884276619  1.0000
  C   C54       1.0  0.16799785590929867  0.4709286882477386  0.5207589991236291  1.0000
  C   C55       1.0  0.33200718676224744  0.9709218714533847  0.020751420545295197  1.0000
  C   C56       1.0  0.6679923980727265  0.029077547414210928  0.9792489964249427  1.0000
  C   C57       1.0  0.0320989779274896  0.5909616330381269  0.41185154055362005  1.0000
  C   C58       1.0  0.9679170165690748  0.40903122942746245  0.5881477435637379  1.0000
  C   C59       1.0  0.5320871919217751  0.9090362329210393  0.08815288865168472  1.0000
  C   C60       1.0  0.4679109010379179  0.09095945045695686  0.9118549135614415  1.0000
  C   C61       1.0  0.9567507017954071  0.37026846210646613  0.6263942895568847  1.0000
  C   C62       1.0  0.0432652926752795  0.6297235517473682  0.373606937420746  1.0000
  C   C63       1.0  0.45672586172641866  0.12972706149358265  0.8736075543528514  1.0000
  C   C64       1.0  0.5432513463641016  0.8702761880997086  0.1263928447908498  1.0000
  O   O1        1.0  0.3813013079879894  0.7986470983722994  0.2971358195504195  1.0000
  O   O2        1.0  0.618687834399573  0.20134738469973  0.702865783711033  1.0000
  O   O3        1.0  0.8813128369321318  0.7013512498266368  0.2028640389562142  1.0000
  O   O4        1.0  0.11869420682435108  0.2986460408583511  0.797136387914307  1.0000
  O   O5        1.0  0.7199626586672636  0.808575862083408  0.1903821091834388  1.0000
  O   O6        1.0  0.28001305761896594  0.1914237312906693  0.8096214092225509  1.0000
  O   O7        1.0  0.21999119970013936  0.6914256166824586  0.3096202308594584  1.0000
  O   O8        1.0  0.780021811186863  0.3085708227304806  0.690380199973191  1.0000
  O   O9        1.0  0.7195402787856866  0.7997931259714547  0.2956532670071256  1.0000
  O   O10       1.0  0.2804428963686405  0.20020119589554503  0.704354929309311  1.0000
  O   O11       1.0  0.2195602808041173  0.7002016375605535  0.2043564715567712  1.0000
  O   O12       1.0  0.7804557135345789  0.29979225868041237  0.7956517267608731  1.0000
  O   O13       1.0  0.8797030036619162  0.6918819693873173  0.30820663793459596  1.0000
  O   O14       1.0  0.12031746612486668  0.3081134495641892  0.6917945732136701  1.0000
  O   O15       1.0  0.37967248480496346  0.808114505989586  0.19179400265372243  1.0000
  O   O16       1.0  0.6202972644352158  0.19187767970095135  0.8082083868423596  1.0000
  O   O17       1.0  0.5504065113854537  0.7153721240182024  0.2537536855814864  1.0000
  O   O18       1.0  0.4495885980874661  0.2846255949620939  0.7462486782041039  1.0000
  O   O19       1.0  0.05041332343346029  0.7846282181056737  0.24624726685940598  1.0000
  O   O20       1.0  0.9495877531549366  0.21536890604970443  0.7537558752617456  1.0000
  F   F1        1.0  0.62215507353433  0.4070263737862803  0.940743401712254  1.0000
  F   F2        1.0  0.377862412633121  0.5929539919900293  0.05926834956403581  1.0000
  F   F3        1.0  0.12217568337395329  0.0929688412407259  0.5592583785129719  1.0000
  F   F4        1.0  0.8778447863876623  0.9070347467468381  0.440740467954967  1.0000
  F   F5        1.0  0.5998397191651607  0.33965011385620164  0.8720243220148872  1.0000
  F   F6        1.0  0.40015837391813136  0.660346410146687  0.12797572063144  1.0000
  F   F7        1.0  0.09984949270473462  0.1603545241885342  0.6279692407408034  1.0000
  F   F8        1.0  0.9001441249481416  0.839630777371859  0.3720413242211151  1.0000
  F   F9        1.0  0.7122908130946897  0.5220920663425945  0.9249984425576301  1.0000
  F   F10       1.0  0.2876729689265787  0.4778906840479706  0.07501407316059529  1.0000
  F   F11       1.0  0.21233461662616548  0.9778963646531411  0.5750080477286802  1.0000
  F   F12       1.0  0.7876709353778324  0.02209564919719749  0.4249931792418949  1.0000
  F   F13       1.0  0.3337226671202345  0.44191691690551965  0.5415523638318049  1.0000
  F   F14       1.0  0.66629929448262  0.5580756917772263  0.4584480848183147  1.0000
  F   F15       1.0  0.8337040206066603  0.05809794509834638  0.9584577548503646  1.0000
  F   F16       1.0  0.1662955641740069  0.9419025841527071  0.04154537143740099  1.0000
