data_image0
_chemical_formula_structural       Cd4H60C60N8O16
_chemical_formula_sum              "Cd4 H60 C60 N8 O16"
_cell_length_a       9.402097945862954
_cell_length_b       12.023378231
_cell_length_c       13.3493
_cell_angle_alpha    90.0
_cell_angle_beta     91.93594855481336
_cell_angle_gamma    90.0

_space_group_name_H-M_alt    "P 1"
_space_group_IT_number       1

loop_
  _space_group_symop_operation_xyz
  'x, y, z'

loop_
  _atom_site_type_symbol
  _atom_site_label
  _atom_site_symmetry_multiplicity
  _atom_site_fract_x
  _atom_site_fract_y
  _atom_site_fract_z
  _atom_site_occupancy
  Cd  Cd1       1.0  0.1367869258922809  0.5637550337161983  0.5613505435153598  1.0000
  Cd  Cd2       1.0  0.3632124681523337  0.0637557918641818  0.9386488427845948  1.0000
  Cd  Cd3       1.0  0.8632118621969482  0.4362442817008301  0.4386497272904535  1.0000
  Cd  Cd4       1.0  0.63678844833656  0.9362435235528466  0.06135147866288551  1.0000
  H   H1        1.0  0.3205486967358198  0.7516548033645593  0.258322455803075  1.0000
  H   H2        1.0  0.1794496331089519  0.2516547297995402  0.2416776542789947  1.0000
  H   H3        1.0  0.6794511555532381  0.2483420169134689  0.7416763421176712  1.0000
  H   H4        1.0  0.8205470265805985  0.7483454173304908  0.7583233149880969  1.0000
  H   H5        1.0  0.0780441591569314  0.7573262543236723  0.979320166451281  1.0000
  H   H6        1.0  0.4219552348876832  0.2573261807586533  0.5206799689516259  1.0000
  H   H7        1.0  0.9219546289322978  0.2426730610933561  0.020680104354532602  1.0000
  H   H8        1.0  0.5780424890017102  0.742673134658375  0.4793187783274534  1.0000
  H   H9        1.0  0.9292529114060883  0.5682022031366998  0.22867214211475337  1.0000
  H   H10       1.0  0.5707452707277483  0.0682037929976858  0.2713282640939667  1.0000
  H   H11       1.0  0.0707458766831337  0.43179711228032863  0.7713281286910603  1.0000
  H   H12       1.0  0.4292524531616451  0.93179801755835  0.7286719813910097  1.0000
  H   H13       1.0  0.867910304471927  0.6471808380723942  0.9555406757318822  1.0000
  H   H14       1.0  0.6320900060615813  0.1471799327943799  0.5444605302214569  1.0000
  H   H15       1.0  0.132089547817138  0.3528209724836344  0.044460369497713315  1.0000
  H   H16       1.0  0.3679109104273124  0.852820214335651  0.4555390421230783  1.0000
  H   H17       1.0  0.7657811746315701  0.6434797152144895  0.0645854449155507  1.0000
  H   H18       1.0  0.7342180717021023  0.1434788099364752  0.4354149866140063  1.0000
  H   H19       1.0  0.2342176134576519  0.3565220953415391  0.9354148258902626  1.0000
  H   H20       1.0  0.2657807163871198  0.8565213371935556  0.5645845350888621  1.0000
  H   H21       1.0  0.8619827113866237  0.523398655443998  0.0295945402921092  1.0000
  H   H22       1.0  0.6380154707472201  0.023398581878979002  0.4704051168136588  1.0000
  H   H23       1.0  0.1380150125027697  0.4766023233990353  0.9704049560899222  1.0000
  H   H24       1.0  0.3619833173420091  0.9766023969640543  0.5295944048892025  1.0000
  H   H25       1.0  0.1326120699365063  0.7209088688278841  0.7628865016219211  1.0000
  H   H26       1.0  0.3673894525077799  0.22090879526286503  0.7371121862167558  1.0000
  H   H27       1.0  0.8673909749520662  0.2790937734411543  0.23711312136428125  1.0000
  H   H28       1.0  0.6326167849802999  0.7790888567281584  0.2628875127319504  1.0000
  H   H29       1.0  0.3483562384448149  0.7280075392980478  0.9110759591798684  1.0000
  H   H30       1.0  0.1516442197996355  0.2280082974460313  0.5889219542350261  1.0000
  H   H31       1.0  0.6516457422439217  0.271992607831983  0.08892214027959972  1.0000
  H   H32       1.0  0.8483630818882801  0.7719893545449922  0.41107552272566045  1.0000
  H   H33       1.0  0.4169183770649241  0.44108734651017306  0.6073669243029158  1.0000
  H   H34       1.0  0.0830788885800189  0.9410899152141923  0.8926339095612762  1.0000
  H   H35       1.0  0.5830793468244693  0.5589111371938529  0.3926333211820676  1.0000
  H   H36       1.0  0.9169209637090461  0.0589118953418364  0.10736788477127132  1.0000
  H   H37       1.0  0.5066868258126718  0.3982316706676343  0.7207221274794904  1.0000
  H   H38       1.0  0.9933092279215002  0.8982334076586511  0.779278228087563  1.0000
  H   H39       1.0  0.4933108980767216  0.601767644749394  0.2792781180054931  1.0000
  H   H40       1.0  0.0066916885674004  0.10176923461038001  0.2207228424628624  1.0000
  H   H41       1.0  0.5779850222105765  0.5061896817242371  0.6477509618253097  1.0000
  H   H42       1.0  0.9220131599232673  0.006192935011228  0.8522494443834107  1.0000
  H   H43       1.0  0.42201376587865275  0.4938079702667864  0.3522485598775518  1.0000
  H   H44       1.0  0.0779866923657977  0.9938088755448078  0.1477516008461848  1.0000
  H   H45       1.0  0.4918263393058027  0.40763584957872473  0.9195632616838055  1.0000
  H   H46       1.0  0.008171990538969  0.9076359231437365  0.5804368483982643  1.0000
  H   H47       1.0  0.5081735129832552  0.5923642975513062  0.0804362853398928  1.0000
  H   H48       1.0  0.9918278617500887  0.09236422398629432  0.41956344772838616  1.0000
  H   H49       1.0  0.6489054276667829  0.4524235947243866  0.9816543142754456  1.0000
  H   H50       1.0  0.8510948828667324  0.9524245000024081  0.5183446443690444  1.0000
  H   H51       1.0  0.351094424622282  0.5475757206926346  0.018345232748252706  1.0000
  H   H52       1.0  0.1489060336221684  0.047577310553627704  0.481656426181388  1.0000
  H   H53       1.0  0.6055744029532306  0.6478736550028756  0.9124272406915424  1.0000
  H   H54       1.0  0.8944248433804419  0.1478744131508662  0.5875716926321104  1.0000
  H   H55       1.0  0.3944254493358272  0.3521256604141527  0.0875723063321558  1.0000
  H   H56       1.0  0.1055803299077951  0.8521273974051695  0.41242873009870346  1.0000
  H   H57       1.0  0.6453871830096816  0.5440900115021918  0.824093432510786  1.0000
  H   H58       1.0  0.8546120633239908  0.0440907696501824  0.675905500812867  1.0000
  H   H59       1.0  0.3546137334792121  0.455910135627839  0.1759061398337423  1.0000
  H   H60       1.0  0.1453909815645815  0.9559110409058533  0.3240956203792321  1.0000
  C   C1        1.0  0.1341423893003579  0.6292249860770411  0.3626562323312186  1.0000
  C   C2        1.0  0.3658580689440925  0.1292274076510367  0.1373439283925251  1.0000
  C   C3        1.0  0.8658585271885428  0.3707718342009798  0.6373433400133166  1.0000
  C   C4        1.0  0.6341417833449725  0.8707735711919966  0.8626563677341252  1.0000
  C   C5        1.0  0.1252754762686195  0.6572553776629135  0.254061298935099  1.0000
  C   C6        1.0  0.3747249819758309  0.1572577992369091  0.24593811268569252  1.0000
  C   C7        1.0  0.8747243760204385  0.3427397791891025  0.7459374989856471  1.0000
  C   C8        1.0  0.6252727419135624  0.8427423478931217  0.7540613836963389  1.0000
  C   C9        1.0  0.22917756303539252  0.7243796071842965  0.21247573238159134  1.0000
  C   C10       1.0  0.2708218310092221  0.2243795336192846  0.2875229048154182  1.0000
  C   C11       1.0  0.7708233534535083  0.2756180448067269  0.7875223417570466  1.0000
  C   C12       1.0  0.7291758928801713  0.7756206135107462  0.7124773406695581  1.0000
  C   C13       1.0  0.2116885029341447  0.7599503088442746  0.1134896473265243  1.0000
  C   C14       1.0  0.2883108911104699  0.2599510669922651  0.3865097389734373  1.0000
  C   C15       1.0  0.7883124135547561  0.24004734314674891  0.8865099250180108  1.0000
  C   C16       1.0  0.7116847043792518  0.7400490801377658  0.6134889576639823  1.0000
  C   C17       1.0  0.092097982188271  0.7262218514832314  0.0557027356861113  1.0000
  C   C18       1.0  0.4079014118563435  0.2262234413442172  0.444301894334494  1.0000
  C   C19       1.0  0.9079008059009581  0.2737766322207946  0.9442997824285515  1.0000
  C   C20       1.0  0.5920973762328856  0.7737783692118114  0.5556998746772166  1.0000
  C   C21       1.0  0.9913021470312131  0.6541139976552088  0.09462903321886532  1.0000
  C   C22       1.0  0.5086981635022951  0.1541147558031923  0.4053706745285695  1.0000
  C   C23       1.0  0.008696641058016  0.3458844860488171  0.905370488483996  1.0000
  C   C24       1.0  0.49130062458692697  0.8458870547528363  0.5946288471742918  1.0000
  C   C25       1.0  0.0085508456805101  0.6211224380137352  0.1948331338578342  1.0000
  C   C26       1.0  0.4914496125639403  0.1211240278747212  0.3051655286600052  1.0000
  C   C27       1.0  0.9914490066085548  0.3788760456902907  0.8051656640629119  1.0000
  C   C28       1.0  0.5085502397251247  0.8788777826813075  0.6948347674666452  1.0000
  C   C29       1.0  0.3184756354557194  0.8374069089867291  0.0704805124790084  1.0000
  C   C30       1.0  0.1815226943890593  0.3374051719957052  0.4295203467060134  1.0000
  C   C31       1.0  0.6815242168333455  0.1625924064302993  0.9295190345446969  1.0000
  C   C32       1.0  0.8184729011006624  0.6625933117083207  0.5704805972402411  1.0000
  C   C33       1.0  0.8654743510478228  0.6147797946621907  0.032207338607811706  1.0000
  C   C34       1.0  0.6345238310860211  0.1147797210971717  0.4677923184979633  1.0000
  C   C35       1.0  0.1345233728415707  0.3852211841808426  0.9677921577742198  1.0000
  C   C36       1.0  0.3654749570032081  0.885222089458864  0.5322064541019529  1.0000
  C   C37       1.0  0.2307951467857805  0.6740435046037732  0.7707315048506447  1.0000
  C   C38       1.0  0.2692010546593266  0.1740442627517638  0.7292670563838611  1.0000
  C   C39       1.0  0.7692025771036128  0.3259583059522555  0.2292672424284419  1.0000
  C   C40       1.0  0.7308019902292457  0.8259533892392596  0.27073181749938874  1.0000
  C   C41       1.0  0.3347493793445011  0.6764912359680082  0.8450798496449181  1.0000
  C   C42       1.0  0.1652521430997851  0.17649033068998682  0.6549225837085046  1.0000
  C   C43       1.0  0.6652547297439071  0.3235105745880276  0.1549227950739152  1.0000
  C   C44       1.0  0.8347551585881305  0.8235089847270416  0.3450808860757775  1.0000
  C   C45       1.0  0.3941540783777029  0.5532821035978301  0.7287994722562702  1.0000
  C   C46       1.0  0.1058442514670688  0.0532845251718186  0.7712006378257996  1.0000
  C   C47       1.0  0.605845773911355  0.4467172118191982  0.2712008238703802  1.0000
  C   C48       1.0  0.8941598576213323  0.9467189488102221  0.22880050868712937  1.0000
  C   C49       1.0  0.4780534650311097  0.4702954437065614  0.6736346665201225  1.0000
  C   C50       1.0  0.0219438006138333  0.9702980124105878  0.8263654182411175  1.0000
  C   C51       1.0  0.5219453230581195  0.5297038717104599  0.3263648551827458  1.0000
  C   C52       1.0  0.978054987475396  0.029703798145448  0.17363635077059317  1.0000
  C   C53       1.0  0.5427302100507774  0.4806261509016281  0.9555657705076046  1.0000
  C   C54       1.0  0.9572701004827308  0.9806270561796495  0.5444339372398375  1.0000
  C   C55       1.0  0.4572696422382804  0.5193731645153932  0.0444337765160938  1.0000
  C   C56       1.0  0.0427318802060057  0.0193739226633838  0.4555664095284797  1.0000
  C   C57       1.0  0.5655115359353715  0.5711556160060027  0.8769763235592833  1.0000
  C   C58       1.0  0.9344877103983009  0.0711563741539933  0.6230226097643766  1.0000
  C   C59       1.0  0.4344883163536934  0.4288436994110256  0.12302322346441491  1.0000
  C   C60       1.0  0.0655163986901002  0.9288446046890401  0.3769777876456075  1.0000
  N   N1        1.0  0.2687657969264947  0.5974186174631058  0.6990094212792428  1.0000
  N   N2        1.0  0.2312325329182841  0.0974202073240917  0.800990688802834  1.0000
  N   N3        1.0  0.731235119562406  0.4025815296669252  0.3009909001682374  1.0000
  N   N4        1.0  0.7687673193707738  0.9025807715189417  0.1990103564267685  1.0000
  N   N5        1.0  0.43642728845448886  0.5998480511412936  0.8181604863976447  1.0000
  N   N6        1.0  0.0635721055901257  0.099850472715282  0.6818381507993649  1.0000
  N   N7        1.0  0.5635746922342477  0.4001504325627323  0.1818383621647754  1.0000
  N   N8        1.0  0.9364320034982755  0.9001505061277514  0.31816149750766703  1.0000
  O   O1        1.0  0.028714239969076495  0.5766890026068268  0.3985864675867603  1.0000
  O   O2        1.0  0.471286218275374  0.0766905924678127  0.10141369313698333  1.0000
  O   O3        1.0  0.9712845481201455  0.4233103128102016  0.601413803219053  1.0000
  O   O4        1.0  0.5287125698138553  0.9233103863752206  0.8985858285658852  1.0000
  O   O5        1.0  0.23984510218927108  0.660160551178123  0.4175979684880674  1.0000
  O   O6        1.0  0.2601564202550151  0.1601613093261065  0.0824014684535612  1.0000
  O   O7        1.0  0.7601568784994654  0.3398371008129004  0.5824008800743528  1.0000
  O   O8        1.0  0.7398402394345425  0.8398380060909219  0.9175972535046883  1.0000
  O   O9        1.0  0.2692670350491468  0.904855506578798  0.0044253760676938  1.0000
  O   O10       1.0  0.23072916639596033  0.4048529378747787  0.49557618157861333  1.0000
  O   O11       1.0  0.7307328172399181  0.0951421454122254  0.9955749200589565  1.0000
  O   O12       1.0  0.7692674932935972  0.5951455458292472  0.5044255367914303  1.0000
  O   O13       1.0  0.4466159376822674  0.8277199476550336  0.1038403467290721  1.0000
  O   O14       1.0  0.05338239216251141  0.3277173789510144  0.39616051245594974  1.0000
  O   O15       1.0  0.5533828504069618  0.1722801994749972  0.8961606731796934  1.0000
  O   O16       1.0  0.9466174601265536  0.6722811047530115  0.6038390345677486  1.0000
