data_image0
_chemical_formula_structural       Ag2H30C34S2N8O10
_chemical_formula_sum              "Ag2 H30 C34 S2 N8 O10"
_cell_length_a       8.293280295822022
_cell_length_b       10.271602098936805
_cell_length_c       11.384481259334834
_cell_angle_alpha    79.37823230575312
_cell_angle_beta     77.70982031663071
_cell_angle_gamma    83.42969092688998

_space_group_name_H-M_alt    "P 1"
_space_group_IT_number       1

loop_
  _space_group_symop_operation_xyz
  'x, y, z'

loop_
  _atom_site_type_symbol
  _atom_site_label
  _atom_site_symmetry_multiplicity
  _atom_site_fract_x
  _atom_site_fract_y
  _atom_site_fract_z
  _atom_site_occupancy
  Ag  Ag1       1.0  0.3293580711983637  0.4121382527080754  0.5379412861434859  1.0000
  Ag  Ag2       1.0  0.6706340095078787  0.5878794684742416  0.46206484677578175  1.0000
  H   H1        1.0  0.7968213190958978  0.019020306923813696  0.08391844394905948  1.0000
  H   H2        1.0  0.2031786920988239  0.9809875669344662  0.9160759613301721  1.0000
  H   H3        1.0  0.6865494882809741  0.17302582746366815  0.05730453963547429  1.0000
  H   H4        1.0  0.3134454975064287  0.8269859743214525  0.9426828436815529  1.0000
  H   H5        1.0  0.8486604137425359  0.8092748020172706  0.9950401207588656  1.0000
  H   H6        1.0  0.15134322894122218  0.19072216905030356  0.004957347119621098  1.0000
  H   H7        1.0  0.9644584250508714  0.6542054626256756  0.029724225554666417  1.0000
  H   H8        1.0  0.03554776349821509  0.34578456208099334  0.97028810715063  1.0000
  H   H9        1.0  0.4404222629146518  0.4532187791726372  0.7695737032262145  1.0000
  H   H10       1.0  0.5595786095193701  0.5467851320083453  0.23041332467802536  1.0000
  H   H11       1.0  0.5869492614547979  0.3175633867160741  0.926568831343545  1.0000
  H   H12       1.0  0.4130440886719456  0.6824483898255593  0.07342667799849065  1.0000
  H   H13       1.0  0.5569777993603537  0.9744335657641867  0.7640037234372699  1.0000
  H   H14       1.0  0.4430294229393184  0.025574387084020597  0.23599325398170384  1.0000
  H   H15       1.0  0.41050410412623956  0.12362082014868037  0.6150452706935  1.0000
  H   H16       1.0  0.5894930367032599  0.8763790613710541  0.3849525631171887  1.0000
  H   H17       1.0  0.20014067047666376  0.369891389108595  0.3113005393487498  1.0000
  H   H18       1.0  0.7998634036179199  0.6301125503218541  0.6886957393599857  1.0000
  H   H19       1.0  0.04869052211665089  0.5045677260787754  0.15859061759684323  1.0000
  H   H20       1.0  0.9513259129598879  0.49541845517801164  0.8413981642020335  1.0000
  H   H21       1.0  0.03465351881703777  0.8390598645791414  0.34165135874705044  1.0000
  H   H22       1.0  0.9653391277017743  0.16093698300554854  0.6583457908038782  1.0000
  H   H23       1.0  0.18572363702841702  0.6877135147867504  0.49138131365327825  1.0000
  H   H24       1.0  0.8142616869844304  0.31229220038578387  0.508617975701938  1.0000
  H   H25       1.0  0.6577535801963704  0.018007045350195493  0.5181167956216726  1.0000
  H   H26       1.0  0.342263730340811  0.9819592472966502  0.481878624147818  1.0000
  H   H27       1.0  0.9886356865136393  0.247149011152544  0.2318819642373455  1.0000
  H   H28       1.0  0.011356034948676074  0.7528408543247735  0.7681261091589848  1.0000
  H   H29       1.0  0.7697929141570584  0.8607513298792638  0.6792520708090921  1.0000
  H   H30       1.0  0.23020504867761812  0.13923264819881348  0.32074384887795304  1.0000
  C   C1        1.0  0.4691683791172211  0.3464362687339743  0.772856651194914  1.0000
  C   C2        1.0  0.5308198209036165  0.6535654992622424  0.22714378790968234  1.0000
  C   C3        1.0  0.551167033045637  0.26940269687190005  0.8593745842427652  1.0000
  C   C4        1.0  0.4488055490940681  0.7306018698460548  0.14063708450238724  1.0000
  C   C5        1.0  0.5882251527287679  0.13347887447586965  0.855897378027905  1.0000
  C   C6        1.0  0.4117573038546781  0.866526801455187  0.14411019864271424  1.0000
  C   C7        1.0  0.5347699536851707  0.0799326856611913  0.7680553547980509  1.0000
  C   C8        1.0  0.4652238132013693  0.9200731224992534  0.2319463454065272  1.0000
  C   C9        1.0  0.4529734372522184  0.1624590664170711  0.6849661482066409  1.0000
  C   C10       1.0  0.5470228829255747  0.8375467722383543  0.31503345947613337  1.0000
  C   C11       1.0  0.6869825504294623  0.0404800864659336  0.9374562692512002  1.0000
  C   C12       1.0  0.3130095692820021  0.959521729771744  0.06253926112966472  1.0000
  C   C13       1.0  0.16071396997778453  0.4741258307404905  0.31504514651612686  1.0000
  C   C14       1.0  0.8392807970679783  0.5258740252822633  0.6849512399343  1.0000
  C   C15       1.0  0.0773893080543715  0.55148500189631  0.22928883940839745  1.0000
  C   C16       1.0  0.9226086737206318  0.4485099197169334  0.7707044187787492  1.0000
  C   C17       1.0  0.031384969766818864  0.6853814811748008  0.2375398343877252  1.0000
  C   C18       1.0  0.9686105730537804  0.314612416462765  0.7624556631611342  1.0000
  C   C19       1.0  0.06940384533049128  0.7352637414678255  0.333661921013281  1.0000
  C   C20       1.0  0.9306030035039043  0.26473228160803325  0.6663229815371496  1.0000
  C   C21       1.0  0.15160070271041085  0.6523016264585593  0.41629040312179916  1.0000
  C   C22       1.0  0.8483981678227935  0.34769628959476506  0.5837022532552396  1.0000
  C   C23       1.0  0.9427181028371766  0.7822289408182853  0.15167772745851246  1.0000
  C   C24       1.0  0.05728019894763036  0.2177818957355981  0.8483190535029195  1.0000
  C   C25       1.0  0.8086327111591415  0.14254732340106097  0.3729406450998952  1.0000
  C   C26       1.0  0.1913810923868127  0.8574427915410326  0.627066295010522  1.0000
  C   C27       1.0  0.7821227230413399  0.04584749529330169  0.4753345062220903  1.0000
  C   C28       1.0  0.21788699595749247  0.9541555031533874  0.5246735024618234  1.0000
  C   C29       1.0  0.9177136356693724  0.9817885377155376  0.5275264794627149  1.0000
  C   C30       1.0  0.08227122357018149  0.018214174523898  0.47248917988148537  1.0000
  C   C31       1.0  0.9713806002970957  0.17485119963940576  0.3157074798108326  1.0000
  C   C32       1.0  0.028625954492149202  0.8251447949514417  0.6843073504466872  1.0000
  C   C33       1.0  0.8950741088684495  0.8853265910563123  0.6353950556748559  1.0000
  C   C34       1.0  0.10493394559735242  0.11467937133549098  0.36461444372074686  1.0000
  S   S1        1.0  0.6378892794931943  0.24324738056253642  0.3206667985527858  1.0000
  S   S2        1.0  0.36212042056531146  0.7567446743489938  0.6793438716310264  1.0000
  N   N1        1.0  0.4230649828922352  0.29408826066421767  0.6856646464062808  1.0000
  N   N2        1.0  0.5769217812692561  0.7059144843157055  0.31433757708982313  1.0000
  N   N3        1.0  0.1973561152275423  0.5236110664971746  0.40712981625670613  1.0000
  N   N4        1.0  0.8026545461857566  0.47639195818901897  0.5928596080464107  1.0000
  N   N5        1.0  0.7307665381230636  0.08536006649625699  0.027901183376819474  1.0000
  N   N6        1.0  0.26922555994114117  0.9146506988181923  0.972097289007053  1.0000
  N   N7        1.0  0.914300337744237  0.7426772010665984  0.05257957694500701  1.0000
  N   N8        1.0  0.08569612270694904  0.25731670182246086  0.9474219541070569  1.0000
  O   O1        1.0  0.7268067172010504  0.9241963361880179  0.9156998971270344  1.0000
  O   O2        1.0  0.2732111742575185  0.07581771102326938  0.08428943781593291  1.0000
  O   O3        1.0  0.897025673561288  0.895344050678467  0.17743343008992  1.0000
  O   O4        1.0  0.10298138952465757  0.10466489440093342  0.822564285459663  1.0000
  O   O5        1.0  0.49230610975779154  0.16609172030361208  0.36432525766529283  1.0000
  O   O6        1.0  0.507703614883802  0.8338993386282137  0.6356873292994507  1.0000
  O   O7        1.0  0.6248054422821028  0.36206930752107513  0.38000786426281513  1.0000
  O   O8        1.0  0.3752272083244533  0.6379249940661181  0.6200038725764188  1.0000
  O   O9        1.0  0.6849527264446279  0.2773381496688856  0.18724480870786667  1.0000
  O   O10       1.0  0.31505270233412824  0.7226608238610622  0.8127608926151739  1.0000
