data_image0
_chemical_formula_structural       Cd2H22C14N6O12
_chemical_formula_sum              "Cd2 H22 C14 N6 O12"
_cell_length_a       7.563453151544968
_cell_length_b       7.999457777646878
_cell_length_c       10.274796327823653
_cell_angle_alpha    75.36929890395609
_cell_angle_beta     79.49092066015318
_cell_angle_gamma    67.74733171352523

_space_group_name_H-M_alt    "P 1"
_space_group_IT_number       1

loop_
  _space_group_symop_operation_xyz
  'x, y, z'

loop_
  _atom_site_type_symbol
  _atom_site_label
  _atom_site_symmetry_multiplicity
  _atom_site_fract_x
  _atom_site_fract_y
  _atom_site_fract_z
  _atom_site_occupancy
  Cd  Cd1       1.0  0.22708363822381022  0.3482919930063347  0.0971273416627625  1.0000
  Cd  Cd2       1.0  0.7729164777437844  0.6517083662809996  0.9028738774855185  1.0000
  H   H1        1.0  0.9725212453527305  0.03264834245313611  0.8497125189056334  1.0000
  H   H2        1.0  0.02750043226629368  0.9673519526454156  0.15028516559326738  1.0000
  H   H3        1.0  0.7903631784695619  0.0325852251987229  0.9816064145770512  1.0000
  H   H4        1.0  0.209662081902998  0.9674054478606847  0.018388750412817984  1.0000
  H   H5        1.0  0.26569937592064014  0.2768874265278355  0.43138891607113555  1.0000
  H   H6        1.0  0.7342943308888721  0.7231088767552264  0.5686070132019624  1.0000
  H   H7        1.0  0.9775757800834699  0.2270958820920228  0.630517542249379  1.0000
  H   H8        1.0  0.022422706079830063  0.7728907483854923  0.36948157508209795  1.0000
  H   H9        1.0  0.8059933163691895  0.28198103254722173  0.24782129916754772  1.0000
  H   H10       1.0  0.19398896046376288  0.7180318133819625  0.7521758165754591  1.0000
  H   H11       1.0  0.6812855051237463  0.1251487352699669  0.6104117040903319  1.0000
  H   H12       1.0  0.3187069401354564  0.8748612441137236  0.38959446974678974  1.0000
  H   H13       1.0  0.5946500008491712  0.2005417220316801  0.4480813960868559  1.0000
  H   H14       1.0  0.4053353307889865  0.799454515669012  0.5519272266986874  1.0000
  H   H15       1.0  0.588092101792519  0.45016155586287  0.634894287410347  1.0000
  H   H16       1.0  0.41190201058749637  0.5498443405537188  0.365105637768373  1.0000
  H   H17       1.0  0.39122946792222296  0.3970881305788011  0.6136209451255112  1.0000
  H   H18       1.0  0.6087609073714972  0.602920517369057  0.3863808577022851  1.0000
  H   H19       1.0  0.5243002050527323  0.3565862840317494  0.8902726349412619  1.0000
  H   H20       1.0  0.47571299287759683  0.6434070904007783  0.1097351454219293  1.0000
  H   H21       1.0  0.43443623856625646  0.2175857572282354  0.8705492660038132  1.0000
  H   H22       1.0  0.5655705827260534  0.7824145718779717  0.12945213205254189  1.0000
  C   C1        1.0  0.878585792207808  0.26544955689119837  0.9400035538611532  1.0000
  C   C2        1.0  0.12141721238855746  0.7345466763747268  0.05999614630201932  1.0000
  C   C3        1.0  0.9246124851601037  0.0613897052875956  0.9521418652871246  1.0000
  C   C4        1.0  0.07540435567735669  0.9386092442264412  0.04785470147916027  1.0000
  C   C5        1.0  0.12819505329631656  0.27035336390424186  0.42241932581994485  1.0000
  C   C6        1.0  0.8717968569673361  0.7296401595501649  0.5775812323575024  1.0000
  C   C7        1.0  0.9871066683209404  0.24541721696093793  0.5218472657890558  1.0000
  C   C8        1.0  0.012885120130015016  0.7545804466635603  0.47815155809678334  1.0000
  C   C9        1.0  0.8958096100920654  0.2730439051574507  0.3222071179065296  1.0000
  C   C10       1.0  0.10417954369369656  0.7269647858447142  0.6777899552479668  1.0000
  C   C11       1.0  0.6558581942433719  0.23747035226719498  0.5210212076552523  1.0000
  C   C12       1.0  0.3441382344533394  0.7625327739756146  0.478979933353898  1.0000
  C   C13       1.0  0.5229852092427976  0.4194427391046673  0.560368995268604  1.0000
  C   C14       1.0  0.4770057383629975  0.5805645529955611  0.439630072743654  1.0000
  N   N1        1.0  0.06964723478599671  0.2872869672475886  0.2983242229639274  1.0000
  N   N2        1.0  0.9303383286338659  0.7127203428278648  0.7016754842371568  1.0000
  N   N3        1.0  0.8421121357980254  0.2466867881296153  0.4568151177777722  1.0000
  N   N4        1.0  0.15787686365496975  0.7533150323646894  0.5431813135167686  1.0000
  N   N5        1.0  0.5711424853189939  0.044410152942319314  0.21640068770556545  1.0000
  N   N6        1.0  0.42885822786838196  0.9555888582094738  0.7835968187330734  1.0000
  O   O1        1.0  0.9794253750734757  0.3249323753658969  0.9901528597976751  1.0000
  O   O2        1.0  0.020590119717503876  0.6750665786419459  0.009843866765820155  1.0000
  O   O3        1.0  0.3981263611151461  0.3395169159783221  0.8956245738946933  1.0000
  O   O4        1.0  0.6018822539971892  0.6604820142259484  0.1043788190194306  1.0000
  O   O5        1.0  0.735589501649848  0.3787816617481355  0.8755172354943995  1.0000
  O   O6        1.0  0.26441183582571176  0.621218654484899  0.1244887133271746  1.0000
  O   O7        1.0  0.4578409998008155  0.005468807562031899  0.158412959312848  1.0000
  O   O8        1.0  0.5421588151136305  0.994528813675437  0.8415868615779659  1.0000
  O   O9        1.0  0.5362107272518344  0.2138687767915215  0.2144404181479089  1.0000
  O   O10       1.0  0.46378906275490556  0.7861288367338516  0.7855603806370084  1.0000
  O   O11       1.0  0.7090004346509604  0.9194270202053474  0.2717427927804864  1.0000
  O   O12       1.0  0.2910076308963099  0.08057062805399082  0.7282492240683922  1.0000
