data_image0
_chemical_formula_structural       Al4H34C68O20F2
_chemical_formula_sum              "Al4 H34 C68 O20 F2"
_cell_length_a       6.657193809447316
_cell_length_b       17.1507402138852
_cell_length_c       19.340052544438578
_cell_angle_alpha    71.00290916233965
_cell_angle_beta     89.81436148995915
_cell_angle_gamma    89.50402109894594

_space_group_name_H-M_alt    "P 1"
_space_group_IT_number       1

loop_
  _space_group_symop_operation_xyz
  'x, y, z'

loop_
  _atom_site_type_symbol
  _atom_site_label
  _atom_site_symmetry_multiplicity
  _atom_site_fract_x
  _atom_site_fract_y
  _atom_site_fract_z
  _atom_site_occupancy
  Al  Al1       1.0  0.0989409264124603  0.49742649626222857  0.5011920209932227  1.0000
  Al  Al2       1.0  0.5986548915840261  0.5014176302175385  0.49878440398735785  1.0000
  Al  Al3       1.0  0.6352512614493407  0.0017849680236423995  0.9984002609521238  1.0000
  Al  Al4       1.0  0.135563666800337  0.9981352478271786  0.0011629927978021527  1.0000
  H   H1        1.0  0.9513941787597063  0.537057265612141  0.2993132399369074  1.0000
  H   H2        1.0  0.030920542587054494  0.5150400547616908  0.18254294840320986  1.0000
  H   H3        1.0  0.03540908967378439  0.6340004861231063  0.06585322070041136  1.0000
  H   H4        1.0  0.9674305500734873  0.7746909384935207  0.06648548526327151  1.0000
  H   H5        1.0  0.7209287888659687  0.9878480863291511  0.32458404765142757  1.0000
  H   H6        1.0  0.7476490068590494  0.7260404743799  0.4365739602062958  1.0000
  H   H7        1.0  0.13800970778012808  0.5796911282533584  0.6789143819404018  1.0000
  H   H8        1.0  0.5628578465713118  0.6862145880327688  0.5976218799668869  1.0000
  H   H9        1.0  0.41733403870072283  0.7985228606468835  0.6385645135713531  1.0000
  H   H10       1.0  0.43125495895760924  0.88466726443486  0.7191583322094032  1.0000
  H   H11       1.0  0.5973699079818999  0.9196139631921622  0.8208937209286518  1.0000
  H   H12       1.0  0.17340455288146467  0.8137960821489826  0.9016528423550907  1.0000
  H   H13       1.0  0.32023792181509947  0.7021879324275913  0.8599180800242863  1.0000
  H   H14       1.0  0.305833697865296  0.6157665823993241  0.7795900945705866  1.0000
  H   H15       1.0  0.6685804387927519  0.18446927156733037  0.0963024114301589  1.0000
  H   H16       1.0  0.0916404227873215  0.08401466820502887  0.1775102537776689  1.0000
  H   H17       1.0  0.9285488019840072  0.12009245064707127  0.27969633237310626  1.0000
  H   H18       1.0  0.9192245318332724  0.20484112162502294  0.36162009593670047  1.0000
  H   H19       1.0  0.0677790136678169  0.3156412842308994  0.4027271652379553  1.0000
  H   H20       1.0  0.6429132652567446  0.41738876671788444  0.3204867947871506  1.0000
  H   H21       1.0  0.8071927303742327  0.3808072782874702  0.21866851311755647  1.0000
  H   H22       1.0  0.8173832800386123  0.2952906208987044  0.1374491818698544  1.0000
  H   H23       1.0  0.16051648120565426  0.13011643486365898  0.5699111158956569  1.0000
  H   H24       1.0  0.4709371355946245  0.46254101630631783  0.6971394186525827  1.0000
  H   H25       1.0  0.5678139276323791  0.48583670297117004  0.8114753950964867  1.0000
  H   H26       1.0  0.5742557447107898  0.36871645855405427  0.9295876599110071  1.0000
  H   H27       1.0  0.4886954618170519  0.2285479482030155  0.9325678262088812  1.0000
  H   H28       1.0  0.2627841166765492  0.0364448101301988  0.8024044984743667  1.0000
  H   H29       1.0  0.1664235896643547  0.013077599167537797  0.6880241184509683  1.0000
  H   H30       1.0  0.245699264002198  0.2703157812457987  0.5669470275783012  1.0000
  H   H31       1.0  0.3402973285256151  0.6069412251298799  0.46111684457375196  1.0000
  H   H32       1.0  0.8437768733226888  0.3939410438103649  0.5439915776650323  1.0000
  H   H33       1.0  0.3938729104146431  0.8933193562596669  0.04214153529287765  1.0000
  H   H34       1.0  0.8897213686289547  0.10695694211316459  0.9603619084220796  1.0000
  C   C1        1.0  0.35291336492094416  0.418977342329562  0.4174943025482205  1.0000
  C   C2        1.0  0.35321836424467523  0.3851935949684204  0.613246835458362  1.0000
  C   C3        1.0  0.8479571848642847  0.5807246553904265  0.5820648680742619  1.0000
  C   C4        1.0  0.8506944253971866  0.613536458626619  0.386513820964943  1.0000
  C   C5        1.0  0.9527065704847217  0.589213446143134  0.24867294396166534  1.0000
  C   C6        1.0  0.9972182573493599  0.5770434830661202  0.18355315900500094  1.0000
  C   C7        1.0  0.0010759518222940002  0.6446892175235205  0.11726271423284373  1.0000
  C   C8        1.0  0.9624309255737985  0.7233263963302218  0.11759842877840751  1.0000
  C   C9        1.0  0.916956113333832  0.738926515973631  0.18419605273601994  1.0000
  C   C10       1.0  0.9097351379924135  0.6700237333042337  0.2511872148928305  1.0000
  C   C11       1.0  0.8778857808573833  0.8191468114520359  0.1861729396137904  1.0000
  C   C12       1.0  0.8299438499668526  0.8330424182660179  0.2520741522884293  1.0000
  C   C13       1.0  0.8147304617494979  0.7638396482693108  0.3190150059190344  1.0000
  C   C14       1.0  0.857225410139577  0.6843235988697314  0.3165342284226184  1.0000
  C   C15       1.0  0.7966851018986532  0.9128672958561168  0.25842985100587856  1.0000
  C   C16       1.0  0.7462390254734925  0.9259227427087493  0.322437671625181  1.0000
  C   C17       1.0  0.7287719699144475  0.8560463804051396  0.38578205253079284  1.0000
  C   C18       1.0  0.762177120645788  0.7773539464111109  0.3858978489688453  1.0000
  C   C19       1.0  0.015221374612778503  0.6217139446037974  0.6802885635692133  1.0000
  C   C20       1.0  0.8500591086488498  0.6287819959016685  0.6339236629279482  1.0000
  C   C21       1.0  0.690519274914294  0.6824985818761035  0.6338323721351812  1.0000
  C   C22       1.0  0.6968427084811066  0.7328532479561644  0.6782367833192138  1.0000
  C   C23       1.0  0.863736179341785  0.7250631183243783  0.7266328375701573  1.0000
  C   C24       1.0  0.022800012200015405  0.6676639299830424  0.7283395039674049  1.0000
  C   C25       1.0  0.5425759995093884  0.7924576969248986  0.6762716561922771  1.0000
  C   C26       1.0  0.5503688478452772  0.8400098802937915  0.7206822924879999  1.0000
  C   C27       1.0  0.7129260095696494  0.8319933646894593  0.7711368375304344  1.0000
  C   C28       1.0  0.8719340504677077  0.7745672842144768  0.7728707221377672  1.0000
  C   C29       1.0  0.0389298613183513  0.766874357484326  0.8211907603545329  1.0000
  C   C30       1.0  0.19391403353352388  0.7076837873156163  0.8227555270106349  1.0000
  C   C31       1.0  0.18612718866492634  0.660065603570473  0.7784032106740425  1.0000
  C   C32       1.0  0.7201915830765273  0.8776386509696434  0.8194540742563843  1.0000
  C   C33       1.0  0.885178990836856  0.8705097609332101  0.8659368556896608  1.0000
  C   C34       1.0  0.045184457344952  0.8170914631684169  0.8657430306076815  1.0000
  C   C35       1.0  0.5408121454583039  0.18248918835742234  0.13232057600092867  1.0000
  C   C36       1.0  0.37992260931835625  0.13054276528156084  0.13234240742022507  1.0000
  C   C37       1.0  0.21557567804212135  0.12461694420314726  0.17906845304329974  1.0000
  C   C38       1.0  0.210855474602667  0.16988573294062792  0.2277879955243876  1.0000
  C   C39       1.0  0.37102041419600335  0.22572053749382087  0.22604938810307829  1.0000
  C   C40       1.0  0.5365912229827074  0.23248213478899515  0.17705791274119778  1.0000
  C   C41       1.0  0.049455640067854696  0.16299246938250175  0.2787050868140071  1.0000
  C   C42       1.0  0.04410204706120171  0.20987459801364136  0.3237505558253558  1.0000
  C   C43       1.0  0.19967535767363387  0.2678967170928174  0.32179569565558097  1.0000
  C   C44       1.0  0.36532363324822364  0.2746903803864455  0.2727906990349851  1.0000
  C   C45       1.0  0.5252073000767155  0.3307423129831406  0.270868979786293  1.0000
  C   C46       1.0  0.6866831830977276  0.3375979410923191  0.22000087007354807  1.0000
  C   C47       1.0  0.6922743621586419  0.2904351577942065  0.17518328091557583  1.0000
  C   C48       1.0  0.19508749994358957  0.3180420284722771  0.3664059778662434  1.0000
  C   C49       1.0  0.3552823728046731  0.3704967123153082  0.3659973317393862  1.0000
  C   C50       1.0  0.5196005173075945  0.3763528577217342  0.3192743678037431  1.0000
  C   C51       1.0  0.47280625165198137  0.4111521568324647  0.7483351060522807  1.0000
  C   C52       1.0  0.5271019319704634  0.42409002182064626  0.8121535152345982  1.0000
  C   C53       1.0  0.5319266575146955  0.35748917311368433  0.8792004320614595  1.0000
  C   C54       1.0  0.48379637063067793  0.27921013618411183  0.8809138562078757  1.0000
  C   C55       1.0  0.42736801976504785  0.2628705351766526  0.8157348553124633  1.0000
  C   C56       1.0  0.42080516903455123  0.33064149293942785  0.7478111717742307  1.0000
  C   C57       1.0  0.3735931999172308  0.1836169350981649  0.8157770814147084  1.0000
  C   C58       1.0  0.31316589756311686  0.16831473357726875  0.7517201565549952  1.0000
  C   C59       1.0  0.3068365852850405  0.23604375790701929  0.6837890211028606  1.0000
  C   C60       1.0  0.3603225361058334  0.3153257276035646  0.6837556712984207  1.0000
  C   C61       1.0  0.2611935406392334  0.08778742899137626  0.751176151381152  1.0000
  C   C62       1.0  0.20726072152315572  0.07480268962544298  0.6873592420162353  1.0000
  C   C63       1.0  0.20265532713220583  0.14139429302127118  0.6202856473363169  1.0000
  C   C64       1.0  0.25061748904271036  0.21967702156406685  0.6186050655124616  1.0000
  C   C65       1.0  0.3807720730594539  0.1135610596088412  0.8861512766593403  1.0000
  C   C66       1.0  0.3817837023985717  0.08225647377345517  0.08062224590375419  1.0000
  C   C67       1.0  0.8835756939158583  0.8883561279509916  0.11467727147869775  1.0000
  C   C68       1.0  0.8864895878117026  0.9183678720767074  0.9180251389584839  1.0000
  O   O1        1.0  0.5206297161675267  0.413507211863809  0.5844394868560626  1.0000
  O   O2        1.0  0.1818631502561843  0.43273381761847657  0.4413373481390649  1.0000
  O   O3        1.0  0.018938999887538405  0.5846145697475789  0.41448956204590814  1.0000
  O   O4        1.0  0.18083803331482776  0.4105057058778029  0.5870286222914344  1.0000
  O   O5        1.0  0.0181104084680328  0.5594710226668624  0.5635181653122173  1.0000
  O   O6        1.0  0.5222131628738323  0.4410556860312269  0.43486593794177225  1.0000
  O   O7        1.0  0.3461615059620867  0.5495170676434141  0.4914627438026288  1.0000
  O   O8        1.0  0.6772318706309335  0.5665621649488627  0.55893049015679  1.0000
  O   O9        1.0  0.6789048321736643  0.589039446917937  0.4130297055033194  1.0000
  O   O10       1.0  0.848022981239282  0.44928085381366145  0.5089946449569496  1.0000
  O   O11       1.0  0.21202419044902135  0.0606023655397649  0.0632469701124947  1.0000
  O   O12       1.0  0.5532568278945931  0.08821574830763265  0.912131723521803  1.0000
  O   O13       1.0  0.7159806510505148  0.940018043017389  0.9358487819534814  1.0000
  O   O14       1.0  0.5523663065764309  0.06825647902345369  0.05673133291362828  1.0000
  O   O15       1.0  0.7153709787712614  0.9138077540412864  0.08477285558733179  1.0000
  O   O16       1.0  0.2133415891141155  0.0851809103763443  0.9148165228585935  1.0000
  O   O17       1.0  0.387814304574121  0.949599016081194  0.009088815977108346  1.0000
  O   O18       1.0  0.0556540791522764  0.9124384409684293  0.0883733087928533  1.0000
  O   O19       1.0  0.05665035873078492  0.931884837630278  0.941965888311962  1.0000
  O   O20       1.0  0.8859492900861169  0.049586681697149984  0.990892377414603  1.0000
  F   F1        1.0  0.6774677185523785  0.8698586847951615  0.44915688819809674  1.0000
  F   F2        1.0  0.8191849907429611  0.9800718996394832  0.19773589094789665  1.0000
