data_image0
_chemical_formula_structural       Al4H12C32Cl4O20
_chemical_formula_sum              "Al4 H12 C32 Cl4 O20"
_cell_length_a       6.698287262221655
_cell_length_b       14.698613518676277
_cell_length_c       16.67587525401121
_cell_angle_alpha    94.35565832648219
_cell_angle_beta     90.00039022754981
_cell_angle_gamma    89.99913239513904

_space_group_name_H-M_alt    "P 1"
_space_group_IT_number       1

loop_
  _space_group_symop_operation_xyz
  'x, y, z'

loop_
  _atom_site_type_symbol
  _atom_site_label
  _atom_site_symmetry_multiplicity
  _atom_site_fract_x
  _atom_site_fract_y
  _atom_site_fract_z
  _atom_site_occupancy
  Al  Al1       1.0  0.876066176487555  0.5009081409194209  0.4984043216149487  1.0000
  Al  Al2       1.0  0.3760667755629968  0.49909224803230506  0.5015973290361515  1.0000
  Al  Al3       1.0  0.38473267191582045  0.0009047345229192  0.0009795084282089  1.0000
  Al  Al4       1.0  0.884724111630682  0.9990977426238531  0.9990233618029332  1.0000
  H   H1        1.0  0.37527123005133933  0.6136814448202372  0.7461685055516866  1.0000
  H   H2        1.0  0.8752702704593459  0.3863148150500137  0.25383254795603705  1.0000
  H   H3        1.0  0.6824847223397511  0.8593816295052931  0.770419087257217  1.0000
  H   H4        1.0  0.18248806490069566  0.1406206407145802  0.2295809168227905  1.0000
  H   H5        1.0  0.8846668286456988  0.8300862618628316  0.6045027871246375  1.0000
  H   H6        1.0  0.3846764931432745  0.1699115068970372  0.39550069147645667  1.0000
  H   H7        1.0  0.853685063829488  0.9368800932136665  0.7286558760007651  1.0000
  H   H8        1.0  0.3536976426263648  0.06312123298308592  0.27134692527092596  1.0000
  H   H9        1.0  0.6273637348257495  0.6143506742764372  0.5361351001039694  1.0000
  H   H10       1.0  0.1273689311934234  0.3856500862392735  0.46386658516285445  1.0000
  H   H11       1.0  0.6306639301583132  0.8812931963505264  0.9796924833218412  1.0000
  H   H12       1.0  0.1306569871364474  0.1187084257275401  0.0203037948089886  1.0000
  C   C1        1.0  0.6291221872825047  0.3878202812915745  0.5993421118702854  1.0000
  C   C2        1.0  0.1290949515387041  0.6121784184084121  0.40065176114624984  1.0000
  C   C3        1.0  0.6247713726352657  0.3940975508074516  0.3822536769763829  1.0000
  C   C4        1.0  0.12475697793903612  0.6059018667807123  0.617748004366021  1.0000
  C   C5        1.0  0.9856560549342176  0.7444108145996113  0.6993546166968585  1.0000
  C   C6        1.0  0.4856627789509389  0.2555875798734846  0.30064848944714834  1.0000
  C   C7        1.0  0.1218079695526768  0.6726861220049399  0.689600981174891  1.0000
  C   C8        1.0  0.6218114078861133  0.32731017912013977  0.3104037055018551  1.0000
  C   C9        1.0  0.264766001385766  0.6681977533025646  0.7507396275850837  1.0000
  C   C10       1.0  0.764765270287235  0.3318040673425245  0.24926176748999748  1.0000
  C   C11       1.0  0.2723943045702057  0.7331278530622001  0.8167116655328072  1.0000
  C   C12       1.0  0.7723901200667953  0.2668718223823419  0.18328914862134843  1.0000
  C   C13       1.0  0.1355462512729275  0.8065536232828735  0.8262739642153604  1.0000
  C   C14       1.0  0.63555925688226  0.19344692306458464  0.1737259355607392  1.0000
  C   C15       1.0  0.9916063485830194  0.8077160631358994  0.7658649957194256  1.0000
  C   C16       1.0  0.4916080634513805  0.19228480030901104  0.23413571435472846  1.0000
  C   C17       1.0  0.8219080468454364  0.8647809672065565  0.7364833098861964  1.0000
  C   C18       1.0  0.32191064938581343  0.13521978738592821  0.2635182168990653  1.0000
  C   C19       1.0  0.8293402239067333  0.7984850519259084  0.6576764589684174  1.0000
  C   C20       1.0  0.32934495931644386  0.20151319631892048  0.3423280958960007  1.0000
  C   C21       1.0  0.1337292812503819  0.8381469963100516  0.17222584015218703  1.0000
  C   C22       1.0  0.6337126037132916  0.16185827117477206  0.8277734469345646  1.0000
  C   C23       1.0  0.1334200762277788  0.7853471969847804  0.2254870982403787  1.0000
  C   C24       1.0  0.6334231484143517  0.21464634940753774  0.7745104011779347  1.0000
  C   C25       1.0  0.13306771471292217  0.7269579574977882  0.2841736466906184  1.0000
  C   C26       1.0  0.6330589087787429  0.27303574190226243  0.715817836846817  1.0000
  C   C27       1.0  0.13306605217679388  0.6740276367494574  0.3373202162171225  1.0000
  C   C28       1.0  0.6330755005155664  0.32596291788083676  0.6626664601533605  1.0000
  C   C29       1.0  0.6369319020998817  0.1197751192676719  0.10725928064106678  1.0000
  C   C30       1.0  0.1369564070201008  0.8802234299077654  0.8927412267628511  1.0000
  C   C31       1.0  0.634462091845755  0.101927215846537  0.8923676609092153  1.0000
  C   C32       1.0  0.13451451392295158  0.8980721890553128  0.1076346440785727  1.0000
  Cl  Cl1       1.0  0.45743498869793336  0.7181163119874086  0.8872100885528198  1.0000
  Cl  Cl2       1.0  0.9574321008578578  0.2818807536583492  0.11279115084696657  1.0000
  Cl  Cl3       1.0  0.5978413811047004  0.74500835180136  0.6284112896166361  1.0000
  Cl  Cl4       1.0  0.0978552978395868  0.2549947017143523  0.3715909265020159  1.0000
  O   O1        1.0  0.45678804444419546  0.41552625620600026  0.4136502836169953  1.0000
  O   O2        1.0  0.9567921488568486  0.5844767241520685  0.586348539569947  1.0000
  O   O3        1.0  0.797790062772215  0.4113776606603424  0.5726362134141852  1.0000
  O   O4        1.0  0.29778346458459737  0.5886238840773289  0.42736465578060734  1.0000
  O   O5        1.0  0.7948071177210209  0.42250543397147317  0.4070233473809779  1.0000
  O   O6        1.0  0.29480817016779065  0.577491263211961  0.5929763192854551  1.0000
  O   O7        1.0  0.9566130417215176  0.5887699225765174  0.42349464067333287  1.0000
  O   O8        1.0  0.4566222873464483  0.4112278734824315  0.5764993779758854  1.0000
  O   O9        1.0  0.6254251774060221  0.5542605833973441  0.506950419576313  1.0000
  O   O10       1.0  0.12543187101748998  0.44574024316737143  0.4930518626632221  1.0000
  O   O11       1.0  0.8053825067884546  0.07782694558492413  0.9166074687584781  1.0000
  O   O12       1.0  0.3053874425253795  0.9221894323045916  0.0834156505339436  1.0000
  O   O13       1.0  0.465851121166004  0.0913059841514965  0.0832463668081402  1.0000
  O   O14       1.0  0.9658292211181774  0.9087158148416777  0.9167428252079475  1.0000
  O   O15       1.0  0.4643714330830305  0.08032056608821851  0.9191530544510229  1.0000
  O   O16       1.0  0.9643917460682587  0.9196648105390468  0.0808241588385457  1.0000
  O   O17       1.0  0.3044079019834384  0.9097988600940069  0.9189100101369616  1.0000
  O   O18       1.0  0.8044406611245949  0.09018255849593262  0.0811023323501345  1.0000
  O   O19       1.0  0.6340370270409466  0.945405377900684  0.998331975197054  1.0000
  O   O20       1.0  0.13403486982306126  0.0545946043713457  0.0016691249330023  1.0000
