data_image0
_chemical_formula_structural       Bi2H18C10S2N2Cl2O4
_chemical_formula_sum              "Bi2 H18 C10 S2 N2 Cl2 O4"
_cell_length_a       6.571476107314117
_cell_length_b       7.237581388059365
_cell_length_c       10.125117566260302
_cell_angle_alpha    89.9995404250365
_cell_angle_beta     105.42037218009536
_cell_angle_gamma    90.00017138226089

_space_group_name_H-M_alt    "P 1"
_space_group_IT_number       1

loop_
  _space_group_symop_operation_xyz
  'x, y, z'

loop_
  _atom_site_type_symbol
  _atom_site_label
  _atom_site_symmetry_multiplicity
  _atom_site_fract_x
  _atom_site_fract_y
  _atom_site_fract_z
  _atom_site_occupancy
  Bi  Bi1       1.0  0.40332928784589234  0.5013458801743127  0.057426238415075694  1.0000
  Bi  Bi2       1.0  0.5966767076453935  0.0013426698712208998  0.9425808859797795  1.0000
  H   H1        1.0  0.290898911255674  0.6757742693879649  0.2857841466338228  1.0000
  H   H2        1.0  0.7090931088549085  0.17576700707586204  0.7142226196274775  1.0000
  H   H3        1.0  0.09821540551289593  0.7287165109425047  0.1458520024943937  1.0000
  H   H4        1.0  0.9017921852638084  0.22872063868827297  0.8541412397320156  1.0000
  H   H5        1.0  0.9521947183554361  0.5100457975213217  0.27973020960585154  1.0000
  H   H6        1.0  0.04780324263681731  0.010046356516298299  0.7202666424233397  1.0000
  H   H7        1.0  0.03100292127169271  0.07345836047866779  0.23330213816382175  1.0000
  H   H8        1.0  0.9689982118508526  0.5734606920676484  0.766691912630449  1.0000
  H   H9        1.0  0.1929419582857435  0.05020952919743139  0.4035470851429962  1.0000
  H   H10       1.0  0.8070497807838992  0.5502188544036314  0.596451466800424  1.0000
  H   H11       1.0  0.9551438680975226  0.18189976040862627  0.3706679959547046  1.0000
  H   H12       1.0  0.0448479399947743  0.681906663175688  0.6293258597997279  1.0000
  H   H13       1.0  0.4072612900616122  0.3029164818461324  0.5259777854105322  1.0000
  H   H14       1.0  0.5927324232304729  0.8029196897502401  0.4740275433361986  1.0000
  H   H15       1.0  0.412927838525313  0.5239285676140852  0.4542266521858663  1.0000
  H   H16       1.0  0.5870606996313512  0.023933913155595097  0.5457705320246332  1.0000
  H   H17       1.0  0.18574132340665983  0.4490963496972709  0.5049207804688862  1.0000
  H   H18       1.0  0.8142460424578248  0.9491026827800297  0.4950717903037542  1.0000
  C   C1        1.0  0.9450099820147814  0.38919434250331614  0.08625130985662108  1.0000
  C   C2        1.0  0.05500108285009729  0.8891911841004116  0.9137504757906922  1.0000
  C   C3        1.0  0.0681487252168509  0.4657511075589369  0.22533117518349133  1.0000
  C   C4        1.0  0.9318529480460713  0.9657560132042204  0.7746686122190453  1.0000
  C   C5        1.0  0.2150993560573866  0.3198912990749249  0.3160036944577768  1.0000
  C   C6        1.0  0.7848990094078874  0.8198982040398018  0.6839963824055103  1.0000
  C   C7        1.0  0.09055530747328083  0.14572513032646836  0.33098815798356174  1.0000
  C   C8        1.0  0.9094380584648294  0.6457325386156113  0.6690071518459887  1.0000
  C   C9        1.0  0.31032051465482624  0.4053321626852124  0.4574879800589498  1.0000
  C   C10       1.0  0.6896779727791085  0.9053390112029761  0.5425136013912206  1.0000
  S   S1        1.0  0.43681706804121495  0.2528323090531828  0.24337153279061138  1.0000
  S   S2        1.0  0.5631845193692656  0.7528391858088314  0.756637365643506  1.0000
  N   N1        1.0  0.1923626898870694  0.6230042340472508  0.1984010879925293  1.0000
  N   N2        1.0  0.8076402577141764  0.12300455043168056  0.8016038437970178  1.0000
  Cl  Cl1       1.0  0.6657388367571216  0.7627462868892535  0.2017990290304823  1.0000
  Cl  Cl2       1.0  0.3342707876098815  0.2627522733989167  0.7982190474918054  1.0000
  O   O1        1.0  0.0354484949392742  0.39592789048269583  0.9889448832033024  1.0000
  O   O2        1.0  0.9645657170239093  0.8959248421980064  0.011056398205020988  1.0000
  O   O3        1.0  0.7634435698778362  0.32047370055797586  0.07309706769681405  1.0000
  O   O4        1.0  0.23655627387145026  0.8204777929777975  0.9268973249082035  1.0000
