data_image0
_chemical_formula_structural       Sm2H18C22O17
_chemical_formula_sum              "Sm2 H18 C22 O17"
_cell_length_a       6.000838797420324
_cell_length_b       8.83934750553879
_cell_length_c       12.32980700582475
_cell_angle_alpha    104.78461903571139
_cell_angle_beta     91.71291786411476
_cell_angle_gamma    104.8912324200797

_space_group_name_H-M_alt    "P 1"
_space_group_IT_number       1

loop_
  _space_group_symop_operation_xyz
  'x, y, z'

loop_
  _atom_site_type_symbol
  _atom_site_label
  _atom_site_symmetry_multiplicity
  _atom_site_fract_x
  _atom_site_fract_y
  _atom_site_fract_z
  _atom_site_occupancy
  Sm  Sm1       1.0  0.7352237809008955  0.2914002635751487  0.39713427729278555  1.0000
  Sm  Sm2       1.0  0.2577656860048734  0.7016826733821163  0.5900538178704411  1.0000
  H   H1        1.0  0.9145353410011552  0.8399021147155493  0.3409255667284442  1.0000
  H   H2        1.0  0.07186225413703079  0.1581631860251562  0.6540465157517944  1.0000
  H   H3        1.0  0.16844077828402243  0.7817098847881282  0.29554866004309593  1.0000
  H   H4        1.0  0.8207865888031662  0.21754249237315548  0.7026989321483725  1.0000
  H   H5        1.0  0.22347104394730616  0.5637250855035701  0.18439033955534265  1.0000
  H   H6        1.0  0.773664010803266  0.43752459984009556  0.810975910145821  1.0000
  H   H7        1.0  0.681741731320173  0.6268159537482417  0.9753209420422808  1.0000
  H   H8        1.0  0.3158350226812985  0.37483321895801675  0.019956962325906612  1.0000
  H   H9        1.0  0.10595376457264649  0.15934135494993026  0.10822743902686943  1.0000
  H   H10       1.0  0.8940385042325332  0.85049164257385  0.8898819563261358  1.0000
  H   H11       1.0  0.01146320793014867  0.9745758128735674  0.1490842759268248  1.0000
  H   H12       1.0  0.9904829167252772  0.02991937827039951  0.8431299492629096  1.0000
  H   H13       1.0  0.5695850439526565  0.8263878042074639  0.11784429322062105  1.0000
  H   H14       1.0  0.4274965563445079  0.1725546740010628  0.875863599708417  1.0000
  H   H15       1.0  0.703334834699632  0.2952714393170909  0.05423466533157043  1.0000
  H   H16       1.0  0.29354776082536194  0.7036864749281833  0.9395184902686328  1.0000
  H   H17       1.0  0.4757601074261474  0.42554758838817003  0.5621106680455484  1.0000
  H   H18       1.0  0.6686893011652087  0.5880655549221956  0.5591800088093779  1.0000
  C   C1        1.0  0.8957914446554653  0.592009908511713  0.3288377981113514  1.0000
  C   C2        1.0  0.09002137476755213  0.4054901679545181  0.6647957119877932  1.0000
  C   C3        1.0  0.9775531206426679  0.7424500696894967  0.287356306139337  1.0000
  C   C4        1.0  0.011426818812836383  0.2564855984583829  0.7082694733756656  1.0000
  C   C5        1.0  0.9451299081543992  0.6097722266891736  0.09052788034706791  1.0000
  C   C6        1.0  0.05223036237559602  0.39185633661018227  0.9046764498996256  1.0000
  C   C7        1.0  0.12317116225142398  0.5376900307368971  0.10344854215777843  1.0000
  C   C8        1.0  0.8745674423858675  0.4641134563784988  0.8917791638233512  1.0000
  C   C9        1.0  0.8217736972225325  0.572050208695785  0.9846555451071242  1.0000
  C   C10       1.0  0.1760438299692737  0.4297959085625962  0.010488755897874609  1.0000
  C   C11       1.0  0.184463627514269  0.18456253624518132  0.2837764989795276  1.0000
  C   C12       1.0  0.808130509467297  0.8146805864648741  0.7148056813096135  1.0000
  C   C13       1.0  0.0282539673972764  0.10610063028282468  0.17465854437915604  1.0000
  C   C14       1.0  0.9705943960954855  0.8980127870792884  0.8208246307106821  1.0000
  C   C15       1.0  0.6500294274456095  0.0663905233864597  0.09354903668381101  1.0000
  C   C16       1.0  0.3469272736441411  0.9325986207051359  0.900235329039376  1.0000
  C   C17       1.0  0.5372497706941175  0.900565558282871  0.06403489701513375  1.0000
  C   C18       1.0  0.4601556448482783  0.0983062703516637  0.9295537376982212  1.0000
  C   C19       1.0  0.3840443276520348  0.8328017323841053  0.9659269623602783  1.0000
  C   C20       1.0  0.6133516912966499  0.16607992240502512  0.027656043602768014  1.0000
  C   C21       1.0  0.42715887027815574  0.0524371270976616  0.536359659203882  1.0000
  C   C22       1.0  0.5635647294467673  0.9459636620949822  0.46067798733938065  1.0000
  O   O1        1.0  0.004115341666405861  0.5884818829166961  0.4197784935365761  1.0000
  O   O2        1.0  0.9747468338647564  0.4117112450388659  0.5773328976164153  1.0000
  O   O3        1.0  0.7276694757036424  0.4751339303598243  0.27693912361915113  1.0000
  O   O4        1.0  0.26774056771030524  0.518836200712407  0.7124248532429933  1.0000
  O   O5        1.0  0.8812086189031376  0.7199631245563934  0.17578173362417002  1.0000
  O   O6        1.0  0.11445025269261318  0.28096446865558267  0.8189529394265167  1.0000
  O   O7        1.0  0.1090736634471128  0.2677150735201721  0.36641665805807133  1.0000
  O   O8        1.0  0.8809024265049388  0.7233294144553354  0.6337095131359264  1.0000
  O   O9        1.0  0.6084981951791518  0.8351771196094687  0.7120391976429163  1.0000
  O   O10       1.0  0.3840262731261177  0.16116002484147174  0.2842418899204163  1.0000
  O   O11       1.0  0.8050354174934498  0.1356418351321764  0.19165207466156894  1.0000
  O   O12       1.0  0.18988081197259274  0.8633390103087493  0.8027585374580185  1.0000
  O   O13       1.0  0.4782170189789667  0.2010733644849481  0.5375801039298055  1.0000
  O   O14       1.0  0.5166285508102462  0.7980671660977237  0.46102280597196466  1.0000
  O   O15       1.0  0.710887347973788  0.0156942230329733  0.40505610563933914  1.0000
  O   O16       1.0  0.27772580492955956  0.9815872037548841  0.5907748341490021  1.0000
  O   O17       1.0  0.5238815454544294  0.5027634777153196  0.5165114633498434  1.0000
