data_image0
_chemical_formula_structural       Zn16H8C96S16Cl8O52F16
_chemical_formula_sum              "Zn16 H8 C96 S16 Cl8 O52 F16"
_cell_length_a       19.70090172825591
_cell_length_b       19.749129536378952
_cell_length_c       33.42340846060311
_cell_angle_alpha    79.01588254374519
_cell_angle_beta     79.15375009945319
_cell_angle_gamma    63.908485752391314

_space_group_name_H-M_alt    "P 1"
_space_group_IT_number       1

loop_
  _space_group_symop_operation_xyz
  'x, y, z'

loop_
  _atom_site_type_symbol
  _atom_site_label
  _atom_site_symmetry_multiplicity
  _atom_site_fract_x
  _atom_site_fract_y
  _atom_site_fract_z
  _atom_site_occupancy
  Zn  Zn1       1.0  0.054507322736022004  0.40095050558284817  0.47788899900009335  1.0000
  Zn  Zn2       1.0  0.9849716024491857  0.4837891944610033  0.5605908386265169  1.0000
  Zn  Zn3       1.0  0.059359316781041116  0.5603104311187295  0.4821300458535162  1.0000
  Zn  Zn4       1.0  0.9007490068242774  0.5557121371163234  0.47955048742700507  1.0000
  Zn  Zn5       1.0  0.6950521805985517  0.34876970944166136  0.27233212236740906  1.0000
  Zn  Zn6       1.0  0.6898977365000506  0.18907086791388375  0.26600702635528956  1.0000
  Zn  Zn7       1.0  0.7683314478407866  0.26724156457405013  0.1901436206379685  1.0000
  Zn  Zn8       1.0  0.8483458759633822  0.19391044283852907  0.27145880639673686  1.0000
  Zn  Zn9       1.0  0.26560959318788246  0.7656724442652634  0.689436913780426  1.0000
  Zn  Zn10      1.0  0.34926012758926117  0.696669807433693  0.7718084926163441  1.0000
  Zn  Zn11      1.0  0.19292327249805652  0.8489046951688903  0.77087900366746  1.0000
  Zn  Zn12      1.0  0.19112451388207322  0.6891736938928117  0.7679309052015171  1.0000
  Zn  Zn13      1.0  0.5594139311756836  0.06164160740537024  0.9840923889737353  1.0000
  Zn  Zn14      1.0  0.40169180612314653  0.05366334714283029  0.9771513963758524  1.0000
  Zn  Zn15      1.0  0.5572012234648015  0.9013307081175268  0.9790698976830541  1.0000
  Zn  Zn16      1.0  0.4813410462743591  0.9831391307681013  0.059895552574083404  1.0000
  H   H1        1.0  0.7499886597899847  0.4485480057380827  0.34903491639884265  1.0000
  H   H2        1.0  0.9992696048578792  0.3023222658073904  0.4009088877048228  1.0000
  H   H3        1.0  0.20053876896147932  0.6999936478323434  0.6018621212414246  1.0000
  H   H4        1.0  0.04934628770587321  0.5501937130099106  0.6481731480679825  1.0000
  H   H5        1.0  0.6479573285051997  0.1486863353713018  0.0496981377191403  1.0000
  H   H6        1.0  0.6023226978303383  0.10111264168470768  0.20036451405641026  1.0000
  H   H7        1.0  0.3034027320313797  0.9986669998024875  0.9011119191246735  1.0000
  H   H8        1.0  0.44739624575728254  0.7504655196325062  0.8488771993939748  1.0000
  C   C1        1.0  0.061628519369783405  0.3167093310154243  0.5614251169695236  1.0000
  C   C2        1.0  0.07006199481866558  0.5706951011523671  0.5679592064669022  1.0000
  C   C3        1.0  0.1832898270925369  0.43889486648553333  0.43835649126312853  1.0000
  C   C4        1.0  0.9370801715597848  0.6838082545808106  0.4386615220423807  1.0000
  C   C5        1.0  0.9291918563049107  0.43224940833121683  0.4310546579396686  1.0000
  C   C6        1.0  0.8172375771805278  0.5612064744534349  0.5624558731147644  1.0000
  C   C7        1.0  0.5664963659334249  0.31027920505798084  0.3111287141481042  1.0000
  C   C8        1.0  0.6826103537867851  0.18114157698538932  0.17991824903288028  1.0000
  C   C9        1.0  0.6895145749444609  0.43354836544175174  0.18885953579789566  1.0000
  C   C10       1.0  0.9346935901901715  0.1883858319781525  0.1891756118455135  1.0000
  C   C11       1.0  0.8199475941114686  0.3182967155055108  0.31917832964472836  1.0000
  C   C12       1.0  0.8114432781141475  0.06585232299438806  0.31098503035509845  1.0000
  C   C13       1.0  0.43291153790182346  0.6893173782319336  0.6882488246444182  1.0000
  C   C14       1.0  0.3168233760280118  0.821593275202417  0.8189940025531682  1.0000
  C   C15       1.0  0.1881656808061862  0.9329930537594178  0.6879109780078209  1.0000
  C   C16       1.0  0.0657513878573894  0.8104027013458149  0.8111953186195393  1.0000
  C   C17       1.0  0.17995813957799814  0.6793815200263893  0.6820456889944353  1.0000
  C   C18       1.0  0.31371373960674737  0.5667651356932311  0.8117329311994509  1.0000
  C   C19       1.0  0.4377367776381575  0.1835024552421345  0.9386191672375048  1.0000
  C   C20       1.0  0.4339986173122128  0.9277367717731264  0.9308339910770512  1.0000
  C   C21       1.0  0.6839620095378863  0.9407916604982485  0.9393446950559009  1.0000
  C   C22       1.0  0.5611049243043099  0.8165271711205266  0.06185255944495789  1.0000
  C   C23       1.0  0.5674600595455104  0.06889348975271768  0.07012876748374448  1.0000
  C   C24       1.0  0.3151126353597604  0.06123608253927415  0.059964471089948304  1.0000
  C   C25       1.0  0.898284872902977  0.4060186130016561  0.4022030565028416  1.0000
  C   C26       1.0  0.8509242192912723  0.34481519255819376  0.347827860698537  1.0000
  C   C27       1.0  0.8268561799817746  0.4476949950635997  0.3871655059199454  1.0000
  C   C28       1.0  0.9224355869647882  0.30317455866644105  0.3627908983580852  1.0000
  C   C29       1.0  0.8049632355658362  0.41648155878889515  0.36058568774326716  1.0000
  C   C30       1.0  0.944280118823606  0.3343982726729989  0.38938651421658216  1.0000
  C   C31       1.0  0.0997190097031861  0.6001731412241041  0.5957937483731753  1.0000
  C   C32       1.0  0.1501632213029893  0.6500242475437614  0.6542323536549404  1.0000
  C   C33       1.0  0.14312005138481956  0.643144530395766  0.5827096492970155  1.0000
  C   C34       1.0  0.1067656104219736  0.6070431864255994  0.6673159411385967  1.0000
  C   C35       1.0  0.1671415610306966  0.6669174034386884  0.6119202974653106  1.0000
  C   C36       1.0  0.08271390565057862  0.5832978441091827  0.6381076535362524  1.0000
  C   C37       1.0  0.30441471639957035  0.45216684743003555  0.40062138668374553  1.0000
  C   C38       1.0  0.44565939841585595  0.2966837587032742  0.34925839597790537  1.0000
  C   C39       1.0  0.25817648809734106  0.4137511815263649  0.41376028175037755  1.0000
  C   C40       1.0  0.4918803720850989  0.33506930820543335  0.3360361033583601  1.0000
  C   C41       1.0  0.3772689730755019  0.3387351587496781  0.37286606295678837  1.0000
  C   C42       1.0  0.37293221274229893  0.409998232288892  0.37714648881113527  1.0000
  C   C43       1.0  0.7249970247399135  0.5764185138552661  0.6294947022205193  1.0000
  C   C44       1.0  0.5252029806533474  0.6729897532673166  0.6212040690372118  1.0000
  C   C45       1.0  0.7425490926872343  0.5855684427073199  0.587186656077506  1.0000
  C   C46       1.0  0.5076695915627526  0.6641367185979731  0.6635464445157807  1.0000
  C   C47       1.0  0.60423423438818  0.6412425365055225  0.6084306341611239  1.0000
  C   C48       1.0  0.6459604008455601  0.6080507830547149  0.6422385017707483  1.0000
  C   C49       1.0  0.07738449481953322  0.22453891222765776  0.6285718880787883  1.0000
  C   C50       1.0  0.17343375234540298  0.025077126462242905  0.620784976182378  1.0000
  C   C51       1.0  0.08658588833097978  0.24201155058968743  0.5862240515234659  1.0000
  C   C52       1.0  0.16400044779288692  0.007604712601384689  0.6631088817991254  1.0000
  C   C53       1.0  0.14207074295646288  0.1039531019675763  0.6078477379006912  1.0000
  C   C54       1.0  0.10877989726738238  0.1456580972313617  0.64151631356971  1.0000
  C   C55       1.0  0.8440358937629356  0.8013471234259553  0.3974204784644186  1.0000
  C   C56       1.0  0.9039802053160743  0.9487450628501644  0.35268954496832083  1.0000
  C   C57       1.0  0.9122446983210681  0.7583570902862175  0.4138767163914068  1.0000
  C   C58       1.0  0.8358581590418127  0.9915777857955914  0.3360723455894714  1.0000
  C   C59       1.0  0.9076538896157801  0.8792133295878481  0.3750471515236526  1.0000
  C   C60       1.0  0.840449681043424  0.8707827980053292  0.3749842971174431  1.0000
  C   C61       1.0  0.6546321408960624  0.1536228467716823  0.15024372527634  1.0000
  C   C62       1.0  0.5955994503596999  0.09623397451036893  0.09981875511444825  1.0000
  C   C63       1.0  0.6674975700139285  0.1670594486338076  0.10699504196072238  1.0000
  C   C64       1.0  0.5827374500220941  0.08278407363706457  0.14306911878315276  1.0000
  C   C65       1.0  0.6380241475957008  0.13835255951226336  0.08297634780445409  1.0000
  C   C66       1.0  0.6122581264524457  0.11146196815354864  0.16708615513812927  1.0000
  C   C67       1.0  0.6733156245250953  0.525263649013951  0.1216277770697758  1.0000
  C   C68       1.0  0.5763170198149368  0.7247743011669954  0.1290252562715394  1.0000
  C   C69       1.0  0.6640430454783017  0.508113649986704  0.16400341450422218  1.0000
  C   C70       1.0  0.5858520911466415  0.7419642372269663  0.08668768229636466  1.0000
  C   C71       1.0  0.6080057651454213  0.6459768553647434  0.1420983845252266  1.0000
  C   C72       1.0  0.6416031215741144  0.6040589566138758  0.10852305260461752  1.0000
  C   C73       1.0  0.08119318599203502  0.12455943655570678  0.17662083734784767  1.0000
  C   C74       1.0  0.16855877705906153  0.12571996394211737  0.0725869519026503  1.0000
  C   C75       1.0  0.009005034562278502  0.1636946746110226  0.16417072984184947  1.0000
  C   C76       1.0  0.24076719361972468  0.08653780867560101  0.08496399412820207  1.0000
  C   C77       1.0  0.10997201346845033  0.1399811168714676  0.10573203516796069  1.0000
  C   C78       1.0  0.1398301760771403  0.1104863696025191  0.1434889360319715  1.0000
  C   C79       1.0  0.34395474996840397  0.851789873175242  0.8477729014769082  1.0000
  C   C80       1.0  0.40687225355276274  0.8973815019539586  0.9021559703915186  1.0000
  C   C81       1.0  0.3029692006937452  0.9229037557907914  0.8628876924956258  1.0000
  C   C82       1.0  0.4478321277502815  0.8262548822234661  0.8870695925534304  1.0000
  C   C83       1.0  0.3349618970689221  0.9439435790776544  0.8894780006017128  1.0000
  C   C84       1.0  0.41583431313070923  0.8052078889922426  0.8604827180313775  1.0000
  C   C85       1.0  0.40652032702910657  0.44837697728382847  0.8529196804126471  1.0000
  C   C86       1.0  0.345421700796841  0.30144641948588446  0.8969884327312696  1.0000
  C   C87       1.0  0.3385665257711992  0.49189581787170766  0.8363022640465728  1.0000
  C   C88       1.0  0.41331047333471105  0.25809005394786777  0.9137327717938744  1.0000
  C   C89       1.0  0.34230381310348434  0.3709211576897997  0.8747422104422569  1.0000
  C   C90       1.0  0.4096824127623791  0.3788500665949782  0.8750821385973494  1.0000
  C   C91       1.0  0.9447014707307559  0.7975265155582888  0.849502582303458  1.0000
  C   C92       1.0  0.8046877823506265  0.953930779849955  0.9006163410824682  1.0000
  C   C93       1.0  0.9911396744972406  0.8355965222618308  0.8359773613451864  1.0000
  C   C94       1.0  0.7582219635132575  0.9159269245985155  0.9141947717005863  1.0000
  C   C95       1.0  0.8727408930681831  0.911373958189969  0.8769742685380919  1.0000
  C   C96       1.0  0.8765041443432792  0.8401521511167118  0.8730564371888574  1.0000
  S   S1        1.0  0.2988320029645664  0.32412194962458324  0.39727528251357563  1.0000
  S   S2        1.0  0.45135346532713083  0.42460664808795195  0.35268624159239437  1.0000
  S   S3        1.0  0.6611402746374893  0.6336422044839976  0.5621075914411903  1.0000
  S   S4        1.0  0.5890940711386251  0.6159919558527067  0.688577716985442  1.0000
  S   S5        1.0  0.13465378533901884  0.16069099100726447  0.5614138910222691  1.0000
  S   S6        1.0  0.11594438665366623  0.08892625072355996  0.6879460748470124  1.0000
  S   S7        1.0  0.9737251700013587  0.8031788874434933  0.4019405405644748  1.0000
  S   S8        1.0  0.7745477781159593  0.9465873943421315  0.3479196377955915  1.0000
  S   S9        1.0  0.6154365439476807  0.5895795566646667  0.1886269370183484  1.0000
  S   S10       1.0  0.6344718401300611  0.6605211473260367  0.06200966364845326  1.0000
  S   S11       1.0  0.012095364725411202  0.18411142336056938  0.1109746903418696  1.0000
  S   S12       1.0  0.2377404632552427  0.06640790428707528  0.13819926458182147  1.0000
  S   S13       1.0  0.276746649819323  0.44738300392065605  0.8477819172367659  1.0000
  S   S14       1.0  0.4750753181820927  0.3026071249423336  0.9022182323768319  1.0000
  S   S15       1.0  0.9511963521339342  0.9254450690926246  0.8521447922060688  1.0000
  S   S16       1.0  0.7980047306709112  0.8261554629111669  0.8978960097630803  1.0000
  Cl  Cl1       1.0  0.7626953539281728  0.5367171245195906  0.39925877237181595  1.0000
  Cl  Cl2       1.0  0.9867729325915845  0.2143843410933499  0.35052776158840976  1.0000
  Cl  Cl3       1.0  0.16983737333037402  0.6690798671762083  0.532096748008584  1.0000
  Cl  Cl4       1.0  0.08027268647681751  0.5808810849827138  0.7179400588618988  1.0000
  Cl  Cl5       1.0  0.718016965456009  0.2176989740175442  0.080703991175973  1.0000
  Cl  Cl6       1.0  0.5320928000379582  0.03227692201099313  0.16933983927542326  1.0000
  Cl  Cl7       1.0  0.21403555233008126  0.9878618389713335  0.8506854703583855  1.0000
  Cl  Cl8       1.0  0.53689317546322  0.7614302498813073  0.8992039080114578  1.0000
  O   O1        1.0  0.00045243076276340005  0.4990371659070193  0.5001504707208112  1.0000
  O   O2        1.0  0.07708322800665  0.3157899120016978  0.5224686765698933  1.0000
  O   O3        1.0  0.033540634041457906  0.5311054195842999  0.5854754591235717  1.0000
  O   O4        1.0  0.15540860077370414  0.5052431538610518  0.4492431420407925  1.0000
  O   O5        1.0  0.02731723079664051  0.37483453186631976  0.5806702914208941  1.0000
  O   O6        1.0  0.15313848555597792  0.3913271729890867  0.44644393945634414  1.0000
  O   O7        1.0  0.0832163661221372  0.5871580263854314  0.5295262070662473  1.0000
  O   O8        1.0  0.0045804547055823  0.6562951343770321  0.44876383015041194  1.0000
  O   O9        1.0  0.8874000297932839  0.49655340903641587  0.4433557366429  1.0000
  O   O10       1.0  0.889965977702147  0.6535238658089497  0.4478409661593829  1.0000
  O   O11       1.0  0.9954935724342422  0.38729391045943357  0.44097427407142925  1.0000
  O   O12       1.0  0.8759839129415141  0.5265445473903511  0.5814197419171235  1.0000
  O   O13       1.0  0.8156421308519342  0.57774101492663  0.5235542029056788  1.0000
  O   O14       1.0  0.7490911975592525  0.2504725737837388  0.25030332602463556  1.0000
  O   O15       1.0  0.5966433785697164  0.35785387107720357  0.3035735436735365  1.0000
  O   O16       1.0  0.6649152164567838  0.1638420553487592  0.21805364417559053  1.0000
  O   O17       1.0  0.7258181266765433  0.37560324605818335  0.1695912454815911  1.0000
  O   O18       1.0  0.5940729656709464  0.24457425053559936  0.2994600785465876  1.0000
  O   O19       1.0  0.6727088362476579  0.434192520673321  0.22778291776165097  1.0000
  O   O20       1.0  0.7213311099773208  0.21916965884064865  0.16506636078430859  1.0000
  O   O21       1.0  0.8768927694607811  0.22521728394558932  0.16924753954340593  1.0000
  O   O22       1.0  0.8613748538797594  0.25353759057522746  0.3074015964240927  1.0000
  O   O23       1.0  0.9342130038763514  0.17120301782469474  0.22791772617713238  1.0000
  O   O24       1.0  0.7538998900475421  0.36343689228661424  0.30892104112287905  1.0000
  O   O25       1.0  0.7451736723180175  0.09250861641758948  0.2993190239270048  1.0000
  O   O26       1.0  0.8580481548846493  0.09669522694645123  0.3031330049399941  1.0000
  O   O27       1.0  0.250416594556448  0.7500518984661754  0.7498837547936288  1.0000
  O   O28       1.0  0.37451056631957164  0.7232268773854641  0.6689844740087025  1.0000
  O   O29       1.0  0.36263665112304017  0.7565166447659523  0.8080662448676675  1.0000
  O   O30       1.0  0.17114521634685792  0.9342378513184568  0.7267982724506367  1.0000
  O   O31       1.0  0.43406375687112597  0.6743945250796628  0.7272198489492964  1.0000
  O   O32       1.0  0.2232594658969163  0.8746117764532783  0.6689167745072664  1.0000
  O   O33       1.0  0.2511568960139385  0.8624331495372317  0.8078325803791272  1.0000
  O   O34       1.0  0.09481687719677723  0.8588662157809492  0.8023381630835331  1.0000
  O   O35       1.0  0.16604325001775783  0.6636895651867007  0.7204876843273594  1.0000
  O   O36       1.0  0.09462061867665741  0.7435535338060006  0.8009081822186488  1.0000
  O   O37       1.0  0.21732489306234734  0.7181427446053377  0.6645082415806769  1.0000
  O   O38       1.0  0.3597877575860693  0.5982847331586854  0.8035063816918607  1.0000
  O   O39       1.0  0.24683224463381495  0.5932319636831663  0.8009053109229781  1.0000
  O   O40       1.0  0.49995873532826346  0.00048488798220354455  0.9997261947014877  1.0000
  O   O41       1.0  0.5036100649711202  0.15760874063327887  0.9506711564819524  1.0000
  O   O42       1.0  0.3889191260231827  0.9936516847182728  0.9408679252864544  1.0000
  O   O43       1.0  0.6546588982723449  0.8925129377232747  0.9475067099437381  1.0000
  O   O44       1.0  0.39194905474096237  0.15173635530521068  0.9458503652369145  1.0000
  O   O45       1.0  0.6557520615729829  0.006842469621766151  0.9506427780591691  1.0000
  O   O46       1.0  0.4988840426821427  0.886219030074684  0.9428349398438199  1.0000
  O   O47       1.0  0.5799054408409106  0.8156180798140866  0.02304779176618144  1.0000
  O   O48       1.0  0.5288499084817958  0.030744179248763666  0.08496066619915865  1.0000
  O   O49       1.0  0.5235811691042612  0.8747177539031271  0.08083804551636578  1.0000
  O   O50       1.0  0.5849306901632119  0.08645370464847704  0.03199491412735968  1.0000
  O   O51       1.0  0.31589143712213286  0.07624414914296547  0.021117797295893588  1.0000
  O   O52       1.0  0.3727050729538846  0.02589979313847119  0.08016398027906751  1.0000
  F   F1        1.0  0.2873600005628277  0.5221530251944343  0.40887081218247084  1.0000
  F   F2        1.0  0.4626329651646087  0.22674239400085838  0.3409452571182214  1.0000
  F   F3        1.0  0.7765803835864916  0.5414462341230217  0.6562825447735534  1.0000
  F   F4        1.0  0.47363150482932065  0.7080262512798753  0.5944019323061623  1.0000
  F   F5        1.0  0.0423928092403045  0.276012875347746  0.6552503572167154  1.0000
  F   F6        1.0  0.2084408978924372  0.9735293789129285  0.5941475386641527  1.0000
  F   F7        1.0  0.7865033960895785  0.7804863644687782  0.4017767225790507  1.0000
  F   F8        1.0  0.9614234483746884  0.9696724159613553  0.34844550932456997  1.0000
  F   F9        1.0  0.708562523678225  0.4735845427052395  0.0950703070455532  1.0000
  F   F10       1.0  0.5411054112828069  0.7764397267814901  0.15557979464468727  1.0000
  F   F11       1.0  0.0955061933810555  0.10185408465635247  0.21581694635003856  1.0000
  F   F12       1.0  0.15415535110646056  0.14839905816268129  0.033404421465448315  1.0000
  F   F13       1.0  0.4642334906523261  0.46889719000436236  0.8489095842900979  1.0000
  F   F14       1.0  0.28760897317753387  0.28106525459607906  0.9010967538185142  1.0000
  F   F15       1.0  0.9613067656305889  0.7275147417384386  0.8414653851789139  1.0000
  F   F16       1.0  0.7881862775800101  0.02388050356402259  0.9087173426289537  1.0000
