data_image0
_chemical_formula_structural       Cd4H16C24N8O16
_chemical_formula_sum              "Cd4 H16 C24 N8 O16"
_cell_length_a       4.46238875031803
_cell_length_b       10.25600671000009
_cell_length_c       17.558015518392885
_cell_angle_alpha    89.99999693008839
_cell_angle_beta     95.3531737887172
_cell_angle_gamma    90.00001519336999

_space_group_name_H-M_alt    "P 1"
_space_group_IT_number       1

loop_
  _space_group_symop_operation_xyz
  'x, y, z'

loop_
  _atom_site_type_symbol
  _atom_site_label
  _atom_site_symmetry_multiplicity
  _atom_site_fract_x
  _atom_site_fract_y
  _atom_site_fract_z
  _atom_site_occupancy
  Cd  Cd1       1.0  0.31816614318109526  0.5441084583113706  0.4020110298379365  1.0000
  Cd  Cd2       1.0  0.18183245818995183  0.0441087914996032  0.0979891709051302  1.0000
  Cd  Cd3       1.0  0.6818332588608911  0.45589187437168716  0.5979888574521155  1.0000
  Cd  Cd4       1.0  0.8181669421386459  0.9558915411834332  0.9020112858845764  1.0000
  H   H1        1.0  0.7356579851070535  0.168251663968654  0.5125070915163263  1.0000
  H   H2        1.0  0.7643420424884937  0.6682513167319042  0.9874930567184066  1.0000
  H   H3        1.0  0.2643436659900402  0.8317496437528716  0.48749341907474536  1.0000
  H   H4        1.0  0.2356573612668812  0.331749015951182  0.0125062610719908  1.0000
  H   H5        1.0  0.5079895719512705  0.8975832804736825  0.3263998776785755  1.0000
  H   H6        1.0  0.9920096873513983  0.39758266750177274  0.173599699987939  1.0000
  H   H7        1.0  0.49200983009071564  0.10241705220938263  0.6736000096114694  1.0000
  H   H8        1.0  0.007991965458494102  0.6024166901430519  0.8264002411034994  1.0000
  H   H9        1.0  0.46717724419456635  0.7733828945357286  0.2570452738186333  1.0000
  H   H10       1.0  0.032821497108017204  0.27338319723484256  0.2429543535206093  1.0000
  H   H11       1.0  0.5328221561340242  0.22661743814730778  0.7429551829710732  1.0000
  H   H12       1.0  0.9671756541657643  0.7266171354480944  0.7570454799680633  1.0000
  H   H13       1.0  0.5314827987446975  0.18138054789707778  0.4220041198315982  1.0000
  H   H14       1.0  0.9685163267937045  0.6813812368013998  0.07799660051579592  1.0000
  H   H15       1.0  0.4685165998702203  0.8186188097475693  0.5779969064577699  1.0000
  H   H16       1.0  0.03148307524827489  0.3186190958816582  0.9220032867742559  1.0000
  C   C1        1.0  0.8749602797061513  0.32645945005801735  0.4417841005641563  1.0000
  C   C2        1.0  0.6250411857741084  0.8264581510460828  0.0582161016145193  1.0000
  C   C3        1.0  0.12504137310433086  0.6735418576635297  0.5582158405272608  1.0000
  C   C4        1.0  0.37495821455448913  0.17354218163695379  0.9417843551751873  1.0000
  C   C5        1.0  0.7600362563751517  0.18742969773799698  0.4516751154829635  1.0000
  C   C6        1.0  0.7399606237551666  0.6874303629764212  0.0483249814603965  1.0000
  C   C7        1.0  0.2399653964347479  0.8125696599068276  0.5483248256084678  1.0000
  C   C8        1.0  0.2600387748600426  0.31256996970657974  0.9516760448289716  1.0000
  C   C9        1.0  0.9515275059514465  0.08897131120883728  0.422444509150445  1.0000
  C   C10       1.0  0.5484715655911002  0.5889709766233223  0.0775556432708839  1.0000
  C   C11       1.0  0.0484718943771441  0.9110290214741921  0.5775559476392615  1.0000
  C   C12       1.0  0.451527834737206  0.4110283810213531  0.9224448135188298  1.0000
  C   C13       1.0  0.8153643056413458  0.7328729916208869  0.3469235531130082  1.0000
  C   C14       1.0  0.6846348543659603  0.2328733200836695  0.1530760273582459  1.0000
  C   C15       1.0  0.18463509640064046  0.26712734106217073  0.6530763341770438  1.0000
  C   C16       1.0  0.3153645476760261  0.7671270125993883  0.846923859931799  1.0000
  C   C17       1.0  0.6358115061129865  0.8298259234041153  0.29326780680280246  1.0000
  C   C18       1.0  0.8641899613969527  0.32982529263928473  0.2067323953185394  1.0000
  C   C19       1.0  0.3641878942156112  0.1701744092789212  0.706732649986904  1.0000
  C   C20       1.0  0.1358116896995512  0.6701740650055114  0.7932681152725465  1.0000
  C   C21       1.0  0.8212700720325543  0.9009296339665908  0.2446653041323046  1.0000
  C   C22       1.0  0.6787291875740705  0.4009289773368608  0.255334842976886  1.0000
  C   C23       1.0  0.17872932829604343  0.0990706987164458  0.7553351526574019  1.0000
  C   C24       1.0  0.3212702144679156  0.5990713553461973  0.744665044313166  1.0000
  N   N1        1.0  0.11028082269554319  0.0111846531414201  0.3991890068151918  1.0000
  N   N2        1.0  0.3897177605405772  0.5111843558195088  0.1008106249888669  1.0000
  N   N3        1.0  0.889718579346443  0.9888156795416448  0.6008108804748602  1.0000
  N   N4        1.0  0.6102816415011105  0.4888150018251876  0.8991892623011921  1.0000
  N   N5        1.0  0.972082289678532  0.9582043729715365  0.2057984698333399  1.0000
  N   N6        1.0  0.527917004456171  0.45820369536907896  0.2942016763005526  1.0000
  N   N7        1.0  0.027917110650065496  0.04179595971149299  0.7942019869563666  1.0000
  N   N8        1.0  0.4720823975858154  0.5417966373139792  0.7057982109894994  1.0000
  O   O1        1.0  0.7280620962856261  0.4175699500511671  0.4710503411370439  1.0000
  O   O2        1.0  0.771939425834603  0.9175706207569332  0.028949289990492805  1.0000
  O   O3        1.0  0.2719373074694502  0.5824294075935584  0.5289489766533606  1.0000
  O   O4        1.0  0.22806222526219946  0.08242971192623119  0.971051220600586  1.0000
  O   O5        1.0  0.0962408942525812  0.343130612815763  0.40325480715348766  1.0000
  O   O6        1.0  0.4037578856710695  0.8431322675640158  0.0967459579973635  1.0000
  O   O7        1.0  0.903758506075718  0.6568687448289124  0.596745649636226  1.0000
  O   O8        1.0  0.5962415146578266  0.15686904015738176  0.9032544987923288  1.0000
  O   O9        1.0  0.058162957567496704  0.6888597172117271  0.3243836063410441  1.0000
  O   O10       1.0  0.4418357327799924  0.1888590982627392  0.1756160224375023  1.0000
  O   O11       1.0  0.9418386952426943  0.3111406154714587  0.6756163347503872  1.0000
  O   O12       1.0  0.5581636692619939  0.8111412344203188  0.8243838648525498  1.0000
  O   O13       1.0  0.7047951712407254  0.7014231200240815  0.4079204559268064  1.0000
  O   O14       1.0  0.7952039698070267  0.20142346684205142  0.09207912507999082  1.0000
  O   O15       1.0  0.29520648156916707  0.29857623762074326  0.5920794851646319  1.0000
  O   O16       1.0  0.20479543052157112  0.7985768658409784  0.9079213317097157  1.0000
