data_image0
_chemical_formula_structural       Zn2H36C48N8O8
_chemical_formula_sum              "Zn2 H36 C48 N8 O8"
_cell_length_a       7.996055182590051
_cell_length_b       8.400102475594357
_cell_length_c       16.190178193303232
_cell_angle_alpha    101.72166321150246
_cell_angle_beta     96.39101151360178
_cell_angle_gamma    93.13934409748732

_space_group_name_H-M_alt    "P 1"
_space_group_IT_number       1

loop_
  _space_group_symop_operation_xyz
  'x, y, z'

loop_
  _atom_site_type_symbol
  _atom_site_label
  _atom_site_symmetry_multiplicity
  _atom_site_fract_x
  _atom_site_fract_y
  _atom_site_fract_z
  _atom_site_occupancy
  Zn  Zn1       1.0  0.254549486194449  0.07784828761761277  0.749657947051972  1.0000
  Zn  Zn2       1.0  0.7454466712604884  0.9221469633846271  0.25034088041363134  1.0000
  H   H1        1.0  0.4628734699764578  0.30404211003265397  0.5445196187174375  1.0000
  H   H2        1.0  0.5371166024726859  0.6959703208261417  0.4554849234582577  1.0000
  H   H3        1.0  0.6827083817723291  0.43212078028170703  0.4732688894634123  1.0000
  H   H4        1.0  0.3172821226144507  0.5678818160984921  0.5267303600389114  1.0000
  H   H5        1.0  0.06036060730422579  0.3887602846318359  0.6776437012276091  1.0000
  H   H6        1.0  0.9396343053125589  0.6112349307741526  0.3223525814681381  1.0000
  H   H7        1.0  0.8406028591179291  0.2639562244448258  0.7476804278611909  1.0000
  H   H8        1.0  0.15939267383777178  0.7360463601036712  0.2523197226734339  1.0000
  H   H9        1.0  0.9805388376747642  0.4886677861711206  0.821631764909398  1.0000
  H   H10       1.0  0.019477051334547486  0.5113370977661447  0.17836668131166533  1.0000
  H   H11       1.0  0.8962483658342247  0.7671602477068902  0.8794344881843517  1.0000
  H   H12       1.0  0.1037688577318505  0.23284594285502894  0.12056972468167972  1.0000
  H   H13       1.0  0.2698544711049848  0.8087973084443194  0.09777876107399662  1.0000
  H   H14       1.0  0.7301745224666971  0.1911989464795738  0.902217702051914  1.0000
  H   H15       1.0  0.3515090960459233  0.5296016502124419  0.03918017990799433  1.0000
  H   H16       1.0  0.648511204474488  0.4703958424694932  0.9608146809700246  1.0000
  H   H17       1.0  0.22894198695608034  0.7291379762668273  0.6712739884267621  1.0000
  H   H18       1.0  0.7710445956442056  0.270848858322033  0.3287283886136764  1.0000
  H   H19       1.0  0.35737623952533676  0.47847876846358867  0.6985332975793173  1.0000
  H   H20       1.0  0.6425998187867066  0.5215033449519026  0.30147480159967444  1.0000
  H   H21       1.0  0.5431928339661808  0.4929381524779473  0.8353977392827829  1.0000
  H   H22       1.0  0.4567885966564447  0.5070622181330221  0.1646112725863986  1.0000
  H   H23       1.0  0.5886973999758567  0.7603258714703005  0.942579661602011  1.0000
  H   H24       1.0  0.4112986570379675  0.2396828317545285  0.0574223719693094  1.0000
  H   H25       1.0  0.45161275158249475  0.004998950939231904  0.903313761791644  1.0000
  H   H26       1.0  0.5483867937575511  0.9950059740213677  0.09668191070856125  1.0000
  H   H27       1.0  0.9498201879398277  0.9650152125044685  0.8059444947627059  1.0000
  H   H28       1.0  0.050178687844962176  0.0349824975303505  0.194056587945731  1.0000
  H   H29       1.0  0.6575574321603596  0.8443924471204413  0.7495071299067038  1.0000
  H   H30       1.0  0.3424399734138106  0.155602829196944  0.2504936237922736  1.0000
  H   H31       1.0  0.5690712138989298  0.7856836610248621  0.5921890825723111  1.0000
  H   H32       1.0  0.43092442518083357  0.2143201431464519  0.4078111971550627  1.0000
  H   H33       1.0  0.7816127520919238  0.8435240913582475  0.4959322810528094  1.0000
  H   H34       1.0  0.21837723720077656  0.1564870479099127  0.5040678021748093  1.0000
  H   H35       1.0  0.07486726106346708  0.9560119961822338  0.5633073275819173  1.0000
  H   H36       1.0  0.9251253601215623  0.0440003208089834  0.4366911704769479  1.0000
  C   C1        1.0  0.5948108543044555  0.32181012418642035  0.5719917900790819  1.0000
  C   C2        1.0  0.40518017742154183  0.6781985805890045  0.4280087239234689  1.0000
  C   C3        1.0  0.7157568479305283  0.3926511031357194  0.53268103465998  1.0000
  C   C4        1.0  0.28423386214219437  0.6073539530523532  0.4673197103007852  1.0000
  C   C5        1.0  0.8852535046184826  0.4159741072146588  0.5707101189839535  1.0000
  C   C6        1.0  0.11473910432142281  0.5840235584933852  0.4292862808493823  1.0000
  C   C7        1.0  0.9293667559484502  0.36986292523068454  0.6483844555688593  1.0000
  C   C8        1.0  0.07062573374303574  0.6301335619790008  0.35161428921762194  1.0000
  C   C9        1.0  0.8068554465895089  0.2997845465933296  0.6874192945649684  1.0000
  C   C10       1.0  0.1931387222796346  0.7002168238605435  0.3125806561529459  1.0000
  C   C11       1.0  0.6390590252243624  0.27369191362769396  0.6492875897038958  1.0000
  C   C12       1.0  0.36093629220213336  0.726308241956275  0.35071292098169954  1.0000
  C   C13       1.0  0.5094505243385045  0.19848827354866933  0.6926670559466646  1.0000
  C   C14       1.0  0.49054940044175754  0.8015069814311886  0.3073332204637538  1.0000
  C   C15       1.0  0.043459423780959086  0.5600147883119959  0.8817119021015075  1.0000
  C   C16       1.0  0.95655067410447  0.43998163178391547  0.11828844995684312  1.0000
  C   C17       1.0  0.9976444077713037  0.714825260374994  0.9129783479536047  1.0000
  C   C18       1.0  0.002371149741463797  0.2851760058182649  0.08702218483509941  1.0000
  C   C19       1.0  0.08130648129102268  0.806553943646918  0.9905154348881171  1.0000
  C   C20       1.0  0.918716312186767  0.19344360994640647  0.009483896993131692  1.0000
  C   C21       1.0  0.2066740774552684  0.738444834778619  0.037159248110583604  1.0000
  C   C22       1.0  0.7933465217507842  0.2615563784584721  0.9628397115645342  1.0000
  C   C23       1.0  0.25118977766303624  0.5820069718380979  0.0050088392458676  1.0000
  C   C24       1.0  0.7488308281051985  0.41799422083675364  0.9949888833562923  1.0000
  C   C25       1.0  0.17137577832852463  0.491889372161353  0.9269425978629118  1.0000
  C   C26       1.0  0.8286486013272095  0.508111803928884  0.07305533661111949  1.0000
  C   C27       1.0  0.2233929637043914  0.32592063171839675  0.8901723460750051  1.0000
  C   C28       1.0  0.7766105489639726  0.6740720851822742  0.1098229355299907  1.0000
  C   C29       1.0  0.31167062691055475  0.7316741245231668  0.7299171300974763  1.0000
  C   C30       1.0  0.6883178569587755  0.2683200017121835  0.2700848556504738  1.0000
  C   C31       1.0  0.38359206676232543  0.5923373455986719  0.7455260327113606  1.0000
  C   C32       1.0  0.6163973402918757  0.4076531676455843  0.254478728764667  1.0000
  C   C33       1.0  0.4862957298289246  0.6016545830060026  0.8221930292963651  1.0000
  C   C34       1.0  0.5136904273958933  0.39834206549921464  0.17781340334449422  1.0000
  C   C35       1.0  0.5125313222949684  0.7500469222558337  0.8810698953416535  1.0000
  C   C36       1.0  0.4874633640701163  0.24996058743661115  0.11893317548591402  1.0000
  C   C37       1.0  0.4367838036904813  0.8849713673025476  0.8607480561992633  1.0000
  C   C38       1.0  0.5632103815841062  0.115029951745754  0.13924880183628124  1.0000
  C   C39       1.0  0.9085400249267152  0.932820392067697  0.7375254072643502  1.0000
  C   C40       1.0  0.09145602312307229  0.0671736495928386  0.2624739095449726  1.0000
  C   C41       1.0  0.7453832229886571  0.8667143964089165  0.7057644766754054  1.0000
  C   C42       1.0  0.25461020629315095  0.1332784264040967  0.2942339511567766  1.0000
  C   C43       1.0  0.6975202467378807  0.8340771813607475  0.6181876907145992  1.0000
  C   C44       1.0  0.30247381928829487  0.1659229591891958  0.38181151227409776  1.0000
  C   C45       1.0  0.8149001226098066  0.8662531098852497  0.5647725813754861  1.0000
  C   C46       1.0  0.18509856301525923  0.133756781343763  0.43522848556355603  1.0000
  C   C47       1.0  0.976784916513985  0.9298512661064819  0.6014906621632647  1.0000
  C   C48       1.0  0.02320590952606949  0.07015497886106908  0.3985083563808374  1.0000
  N   N1        1.0  0.018878740216898404  0.4873867385945518  0.5371289736248244  1.0000
  N   N2        1.0  0.981113649912707  0.5126085084300769  0.46286840489595704  1.0000
  N   N3        1.0  0.04422260603050889  0.9663106752298276  0.02562091741125978  1.0000
  N   N4        1.0  0.9558043891121173  0.0336917299890516  0.9743785245763876  1.0000
  N   N5        1.0  0.02224795481560447  0.9632677952294487  0.6861022755758556  1.0000
  N   N6        1.0  0.9777475748590162  0.036734799600161204  0.3138984934952376  1.0000
  N   N7        1.0  0.3390555201861715  0.8757831133036549  0.7861106949695583  1.0000
  N   N8        1.0  0.6609389580911085  0.1242072544543902  0.2138869265646122  1.0000
  O   O1        1.0  0.36405709436799316  0.1432412024866423  0.6495079811025094  1.0000
  O   O2        1.0  0.6359384221822635  0.8567614334674333  0.35049526211447823  1.0000
  O   O3        1.0  0.5432780973033361  0.19240110240373548  0.7698469589482784  1.0000
  O   O4        1.0  0.4567227605050732  0.8075905087416828  0.23015423758079834  1.0000
  O   O5        1.0  0.16172383668347828  0.2698377243027749  0.8107430245301687  1.0000
  O   O6        1.0  0.8382724433009654  0.7301586949167103  0.18925283944581395  1.0000
  O   O7        1.0  0.3194357549783505  0.252376115100418  0.9328785390826155  1.0000
  O   O8        1.0  0.6805834899844071  0.7476238531987107  0.0671183651663654  1.0000
