data_image0
_chemical_formula_structural       Ag4H24C32N4O16
_chemical_formula_sum              "Ag4 H24 C32 N4 O16"
_cell_length_a       4.960375600003232
_cell_length_b       12.361109183034833
_cell_length_c       13.917645763864922
_cell_angle_alpha    95.06022616798778
_cell_angle_beta     89.99987117368038
_cell_angle_gamma    89.9999883177806

_space_group_name_H-M_alt    "P 1"
_space_group_IT_number       1

loop_
  _space_group_symop_operation_xyz
  'x, y, z'

loop_
  _atom_site_type_symbol
  _atom_site_label
  _atom_site_symmetry_multiplicity
  _atom_site_fract_x
  _atom_site_fract_y
  _atom_site_fract_z
  _atom_site_occupancy
  Ag  Ag1       1.0  0.0001002954852041  0.9326652871835317  0.7267846868611941  1.0000
  Ag  Ag2       1.0  0.5000927356692629  0.06734021963516308  0.7732130662408991  1.0000
  Ag  Ag3       1.0  0.9999032409423737  0.06734299526930698  0.2732141065568143  1.0000
  Ag  Ag4       1.0  0.49990273684983333  0.9326648202895027  0.2267869209129287  1.0000
  H   H1        1.0  0.7429104629360809  0.861503250002542  0.8961838729173125  1.0000
  H   H2        1.0  0.2429070842217982  0.13849817365407793  0.603817690486416  1.0000
  H   H3        1.0  0.2570930734885479  0.1384969200627282  0.10381646734226281  1.0000
  H   H4        1.0  0.7570944362249676  0.8615003751469387  0.3961832466402555  1.0000
  H   H5        1.0  0.23454748117174526  0.6259103856338227  0.9989644343987151  1.0000
  H   H6        1.0  0.7345495579722298  0.37408859691008434  0.5010355154964188  1.0000
  H   H7        1.0  0.7654500073218957  0.3740889753160984  0.001036563668904495  1.0000
  H   H8        1.0  0.26543583468135523  0.6259107397791366  0.49895973261698157  1.0000
  H   H9        1.0  0.0050350042418259  0.4763564385699225  0.8884429792614199  1.0000
  H   H10       1.0  0.5050383270955195  0.5236425884301495  0.6115585947778824  1.0000
  H   H11       1.0  0.9949685321782626  0.523643737560782  0.11155879848794112  1.0000
  H   H12       1.0  0.4949531134830212  0.47635594217542365  0.388438029883531  1.0000
  H   H13       1.0  0.6403400453162079  0.5280867850227081  0.7808642937372738  1.0000
  H   H14       1.0  0.1403498901252433  0.4719138557721719  0.7191401671184607  1.0000
  H   H15       1.0  0.35965744317100257  0.4719117728767869  0.2191387996257106  1.0000
  H   H16       1.0  0.8596536463032151  0.5280830626661056  0.2808592106389867  1.0000
  H   H17       1.0  0.2284089055065692  0.8868718588451756  0.9562666714272511  1.0000
  H   H18       1.0  0.7284047896130161  0.11312549739620437  0.5437324428391861  1.0000
  H   H19       1.0  0.771590598965709  0.11312749907186506  0.0437336078946586  1.0000
  H   H20       1.0  0.2715886669354717  0.8868722301587724  0.45626627711677514  1.0000
  H   H21       1.0  0.3097100889389779  0.7950543488100833  0.043856331041979495  1.0000
  H   H22       1.0  0.8097053394084953  0.20494455279777665  0.456141305795292  1.0000
  H   H23       1.0  0.6902974794380158  0.20494663340342353  0.9561440701552684  1.0000
  H   H24       1.0  0.19029214908592001  0.7950531838550029  0.5438595703937068  1.0000
  C   C1        1.0  0.43230539082910013  0.7371469092392076  0.7665508829991624  1.0000
  C   C2        1.0  0.9323080684643016  0.26285368878429677  0.7334547779035248  1.0000
  C   C3        1.0  0.5676941136272833  0.2628524699068321  0.23345442753699075  1.0000
  C   C4        1.0  0.06769748393293902  0.7371448630490955  0.2665468779663911  1.0000
  C   C5        1.0  0.6588888485814836  0.6988657494033814  0.8297467649007686  1.0000
  C   C6        1.0  0.15888698818064032  0.30113813081864993  0.6702564871420549  1.0000
  C   C7        1.0  0.34111670381536646  0.30113361457858184  0.1702549519084613  1.0000
  C   C8        1.0  0.8411064683621347  0.6988620392474656  0.3297438531216272  1.0000
  C   C9        1.0  0.7931889491323433  0.7755113303028549  0.891463103108066  1.0000
  C   C10       1.0  0.29318549939505095  0.22449090619033288  0.6085406365798534  1.0000
  C   C11       1.0  0.20681257130456746  0.22448885492615733  0.10854083087679102  1.0000
  C   C12       1.0  0.7068160210490576  0.7755084577919649  0.3914610802310179  1.0000
  C   C13       1.0  0.07254377338505691  0.6411363517178542  0.9492596586719204  1.0000
  C   C14       1.0  0.5725455434400432  0.35886265792463945  0.5507404229755863  1.0000
  C   C15       1.0  0.9274577470662492  0.358862191017728  0.0507398409649653  1.0000
  C   C16       1.0  0.4274438811613521  0.6411374969782456  0.4492563235652725  1.0000
  C   C17       1.0  0.9443328014939568  0.5612746233890603  0.8900060943080844  1.0000
  C   C18       1.0  0.44434133579963486  0.4387243301286856  0.609995122462756  1.0000
  C   C19       1.0  0.055662671023696896  0.43872392541246086  0.1099948428210453  1.0000
  C   C20       1.0  0.5556541367248331  0.5612742095746908  0.390003658431695  1.0000
  C   C21       1.0  0.7385098641970346  0.5904216188613842  0.828835790864112  1.0000
  C   C22       1.0  0.23851802598139926  0.4095806207116509  0.6711665557979954  1.0000
  C   C23       1.0  0.2614916562470739  0.40957774512092004  0.1711659259467595  1.0000
  C   C24       1.0  0.7614814784939271  0.5904171098755311  0.3288328829004001  1.0000
  C   C25       1.0  0.1438054235770707  0.832035481590154  0.006208198390140809  1.0000
  C   C26       1.0  0.6438044858389347  0.16796589634504494  0.49379263116784955  1.0000
  C   C27       1.0  0.8561960968719619  0.16796306417814574  0.9937920199916307  1.0000
  C   C28       1.0  0.35619501863600794  0.8320326463907078  0.5062068684698602  1.0000
  C   C29       1.0  0.9687930995141584  0.8957773605224943  0.0819105361445551  1.0000
  C   C30       1.0  0.46878775161585645  0.10422640253040774  0.41809093067634245  1.0000
  C   C31       1.0  0.031210436909319107  0.10422524598849486  0.9180899869329551  1.0000
  C   C32       1.0  0.5312117528620776  0.8957753827342  0.5819073752288234  1.0000
  N   N1        1.0  0.9972821931326481  0.7462541651224156  0.9480740519060618  1.0000
  N   N2        1.0  0.49727505511125975  0.25374558865558317  0.5519264640035857  1.0000
  N   N3        1.0  0.0027253752455039006  0.2537443806453793  0.0519261664732511  1.0000
  N   N4        1.0  0.5027204174128174  0.7462537631963638  0.4480723778301794  1.0000
  O   O1        1.0  0.3499929679733711  0.8329868956103962  0.7933570436523283  1.0000
  O   O2        1.0  0.8499857810129043  0.16701775266356828  0.7066432389337507  1.0000
  O   O3        1.0  0.6500125844260866  0.16701652304899273  0.20664354036367166  1.0000
  O   O4        1.0  0.15001573943762744  0.8329824143691551  0.2933563825817487  1.0000
  O   O5        1.0  0.34906797403474593  0.6729825653529247  0.6981080626538727  1.0000
  O   O6        1.0  0.8490843003346314  0.32701724657495385  0.8019004799777606  1.0000
  O   O7        1.0  0.6509254824940245  0.32701843505805056  0.3018966510184669  1.0000
  O   O8        1.0  0.1509172201159004  0.6729829204577765  0.19809914153774597  1.0000
  O   O9        1.0  0.0856118510699062  0.9797262865372572  0.12118488678096638  1.0000
  O   O10       1.0  0.5855915507389753  0.020271858604814997  0.3788171838443403  1.0000
  O   O11       1.0  0.914393701332209  0.0202763169408513  0.8788149175508339  1.0000
  O   O12       1.0  0.4144019058110119  0.9797274902145857  0.6211809392453489  1.0000
  O   O13       1.0  0.7371956721470312  0.8600700683069604  0.09915079953873371  1.0000
  O   O14       1.0  0.23719444803526105  0.13993533958603874  0.4008466650402696  1.0000
  O   O15       1.0  0.26280988024677043  0.13993092300486148  0.9008517578940101  1.0000
  O   O16       1.0  0.7628070724178785  0.8600688821241107  0.599151823682007  1.0000
