data_image0
_chemical_formula_structural       Tb2Cu2H44C36I2N10O18
_chemical_formula_sum              "Tb2 Cu2 H44 C36 I2 N10 O18"
_cell_length_a       10.87910498032397
_cell_length_b       12.768978342294446
_cell_length_c       14.507031930718274
_cell_angle_alpha    92.17390067478684
_cell_angle_beta     95.6240766906352
_cell_angle_gamma    120.80309651650131

_space_group_name_H-M_alt    "P 1"
_space_group_IT_number       1

loop_
  _space_group_symop_operation_xyz
  'x, y, z'

loop_
  _atom_site_type_symbol
  _atom_site_label
  _atom_site_symmetry_multiplicity
  _atom_site_fract_x
  _atom_site_fract_y
  _atom_site_fract_z
  _atom_site_occupancy
  Tb  Tb1       1.0  0.7219901737473791  0.12443421187195719  0.03617207247272346  1.0000
  Tb  Tb2       1.0  0.2780049364971904  0.8755641647608671  0.9638215780618323  1.0000
  Cu  Cu1       1.0  0.4883271970645424  0.5030694540709109  0.412240351232569  1.0000
  Cu  Cu2       1.0  0.5116721550525016  0.49693349306361534  0.58776414202228  1.0000
  H   H1        1.0  0.26552201505185746  0.7051350779135178  0.22413187259998316  1.0000
  H   H2        1.0  0.7344850133616915  0.2948780822298929  0.7758680781570675  1.0000
  H   H3        1.0  0.19951894598231953  0.14750370686745382  0.15974321007213624  1.0000
  H   H4        1.0  0.8004857139537549  0.8525084668808419  0.8402544441996083  1.0000
  H   H5        1.0  0.7277831155108531  0.886160909470796  0.24622192263485937  1.0000
  H   H6        1.0  0.27222629138194787  0.11383816441433943  0.7537708635998681  1.0000
  H   H7        1.0  0.6590132120289952  0.29045147403772387  0.20145265766915796  1.0000
  H   H8        1.0  0.34097602174957614  0.7095223564694566  0.7985645116623559  1.0000
  H   H9        1.0  0.23874116327093742  0.2946253145625948  0.2944505447362075  1.0000
  H   H10       1.0  0.7612537924805312  0.7053810627957874  0.7055447371017678  1.0000
  H   H11       1.0  0.2726500709329259  0.566766950118904  0.3415437544682901  1.0000
  H   H12       1.0  0.7273543891836383  0.4332433858124747  0.6584593374782128  1.0000
  H   H13       1.0  0.6805608976003654  0.4367266714724637  0.33164302449699073  1.0000
  H   H14       1.0  0.3194333531685275  0.5632446898002641  0.6683786136465952  1.0000
  H   H15       1.0  0.8244725938170491  0.14759708326125326  0.8122318517542055  1.0000
  H   H16       1.0  0.17553505557761898  0.8524072188179161  0.18776509902032498  1.0000
  H   H17       1.0  0.8956752610453479  0.4016633819648448  0.9273101925108094  1.0000
  H   H18       1.0  0.10432796746713538  0.5983397783879879  0.07269118101539358  1.0000
  H   H19       1.0  0.7164402552723175  0.7372852029863566  0.3609360803046541  1.0000
  H   H20       1.0  0.28356552630955895  0.26272077508223657  0.6390628399484511  1.0000
  H   H21       1.0  0.8877566906686524  0.06784641855178822  0.708144193725502  1.0000
  H   H22       1.0  0.11223891802347934  0.9321626861538878  0.2918484749128112  1.0000
  H   H23       1.0  0.992499461955035  0.0022803115382928237  0.746110738785724  1.0000
  H   H24       1.0  0.007495192951260959  0.9977252412524747  0.253874839413605  1.0000
  H   H25       1.0  0.07863904430691095  0.15319537367754785  0.7091915681170206  1.0000
  H   H26       1.0  0.9213597897007306  0.8468129702644733  0.2908040992301649  1.0000
  H   H27       1.0  0.9099181171754013  0.5508730824787805  0.8531772758344045  1.0000
  H   H28       1.0  0.09009881781577905  0.44912982712951094  0.1468266001640615  1.0000
  H   H29       1.0  0.8931135490597626  0.6620546165015215  0.9194188359980016  1.0000
  H   H30       1.0  0.10689704783217734  0.3379453011503558  0.08058648550407808  1.0000
  H   H31       1.0  0.7430044872264148  0.5482796608704917  0.8385352786078284  1.0000
  H   H32       1.0  0.2570106884058987  0.45172672356648763  0.16146925669258388  1.0000
  H   H33       1.0  0.10770618216690055  0.17124418754460183  0.9778447880033381  1.0000
  H   H34       1.0  0.8922788376209  0.8287429701953998  0.022153172292774973  1.0000
  H   H35       1.0  0.229493443994791  0.22196460156925482  0.8921293355806055  1.0000
  H   H36       1.0  0.7704964382902092  0.7780280876618522  0.10787472483098529  1.0000
  H   H37       1.0  0.12121083648523273  0.062700240972859  0.9042712464986165  1.0000
  H   H38       1.0  0.878781391606701  0.9372864146957341  0.09572177736323076  1.0000
  H   H39       1.0  0.6495592194312679  0.4230324804374704  0.06518598201034109  1.0000
  H   H40       1.0  0.3504487122158865  0.5769593139287111  0.934816092465759  1.0000
  H   H41       1.0  0.5972960675836633  0.48810710527475737  0.9727159172839777  1.0000
  H   H42       1.0  0.4027028640845458  0.5118868996336375  0.027289623523188276  1.0000
  H   H43       1.0  0.7454413024184063  0.5857441796180682  0.06036898272079579  1.0000
  H   H44       1.0  0.2545609307033062  0.4142490970080603  0.9396361172134673  1.0000
  C   C1        1.0  0.4966218996666215  0.8034489843397239  0.22358966131788088  1.0000
  C   C2        1.0  0.5033834592493066  0.19655611719105084  0.7764050586274108  1.0000
  C   C3        1.0  0.367499437976747  0.7144886802115523  0.252637318267432  1.0000
  C   C4        1.0  0.6325096926021629  0.2855183424289365  0.7473626026015623  1.0000
  C   C5        1.0  0.40857731576546297  0.11676183343447383  0.09309629726435989  1.0000
  C   C6        1.0  0.5914177681017638  0.8832302178828261  0.9069074822008857  1.0000
  C   C7        1.0  0.4977985286107796  0.8814813090867232  0.14849590558716838  1.0000
  C   C8        1.0  0.5021961170065125  0.1185196782501308  0.8515026188643515  1.0000
  C   C9        1.0  0.4270568083449647  0.20791387134637068  0.16928070898117645  1.0000
  C   C10       1.0  0.5729368912858204  0.79208075848328  0.8307264886050445  1.0000
  C   C11       1.0  0.30795804564365886  0.21017777892702583  0.19588065321284634  1.0000
  C   C12       1.0  0.6920392028036774  0.7898197332914381  0.8041221073144909  1.0000
  C   C13       1.0  0.6252572865664662  0.8146724039154308  0.2646203273166563  1.0000
  C   C14       1.0  0.37473802349762037  0.18532781053431793  0.735367885543141  1.0000
  C   C15       1.0  0.5638509341502386  0.29050338957533484  0.21856537275124308  1.0000
  C   C16       1.0  0.4361463510472704  0.7094797576243864  0.7814500129015014  1.0000
  C   C17       1.0  0.32942519113613145  0.29311060847881276  0.2696395199704043  1.0000
  C   C18       1.0  0.6705784734091722  0.7068916815427785  0.7303618607094007  1.0000
  C   C19       1.0  0.3705321176231352  0.6374734934072849  0.31674441226150657  1.0000
  C   C20       1.0  0.6294705623247482  0.36253505076049924  0.6832495111897428  1.0000
  C   C21       1.0  0.5764766039833803  0.3715749491193706  0.2906712664046509  1.0000
  C   C22       1.0  0.42351828228145655  0.6284071986926918  0.7093431985954907  1.0000
  C   C23       1.0  0.914187295009242  0.16832600118998906  0.8668755215235604  1.0000
  C   C24       1.0  0.08581322035853865  0.8316770820766312  0.13311942086559722  1.0000
  C   C25       1.0  0.8270145191171352  0.40452399480687273  0.9772929857668018  1.0000
  C   C26       1.0  0.17298986149634757  0.5954729828588017  0.022708277908051903  1.0000
  C   C27       1.0  0.6194979985539747  0.7335511356747518  0.3275232148978303  1.0000
  C   C28       1.0  0.380505226237041  0.26644851794741004  0.6724711481526666  1.0000
  C   C29       1.0  0.9909854280179148  0.08763361150607811  0.7457948941103324  1.0000
  C   C30       1.0  0.009020820051979893  0.9123715092238244  0.2542026574636651  1.0000
  C   C31       1.0  0.8354548624709539  0.5661843516295592  0.8890004894055037  1.0000
  C   C32       1.0  0.16454604882905954  0.4338231019129992  0.11100703959988317  1.0000
  C   C33       1.0  0.12361056733548993  0.14969258427078103  0.9078957476122083  1.0000
  C   C34       1.0  0.8763837469814391  0.8503075655059079  0.09209444903336818  1.0000
  C   C35       1.0  0.6887634409287743  0.49596452867704965  0.01886418145037536  1.0000
  C   C36       1.0  0.3112463618962594  0.5040389154840313  0.9811411914005814  1.0000
  I   I1        1.0  0.24895026528687234  0.4029804416074115  0.4924270487829147  1.0000
  I   I2        1.0  0.7510484963042501  0.5970313765839068  0.5075790686217514  1.0000
  N   N1        1.0  0.49403495519760554  0.6436707229290448  0.35193689698382963  1.0000
  N   N2        1.0  0.505972210620719  0.35633267662720414  0.648058605148307  1.0000
  N   N3        1.0  0.4617335041804297  0.37400476214343575  0.3163900264814288  1.0000
  N   N4        1.0  0.5382617835841687  0.6259828146678146  0.6836170684070381  1.0000
  N   N5        1.0  0.007353294142610918  0.1386060497606678  0.8409705741773549  1.0000
  N   N6        1.0  0.9926459762542379  0.8613916047964667  0.15902684294570688  1.0000
  N   N7        1.0  0.9107177012325707  0.17390278054380562  0.20675523716455046  1.0000
  N   N8        1.0  0.08926935537594738  0.8260943450847906  0.793234949188651  1.0000
  N   N9        1.0  0.7856965322261403  0.48517923028153126  0.9623520911670835  1.0000
  N   N10       1.0  0.21430968538854966  0.5148258774558202  0.037646836239623796  1.0000
  O   O1        1.0  0.6198469279122635  0.9603676651504147  0.12724661972688978  1.0000
  O   O2        1.0  0.380156266067175  0.03964179453284802  0.8727473765340434  1.0000
  O   O3        1.0  0.3752991571484472  0.8599447041294539  0.11033865980387246  1.0000
  O   O4        1.0  0.6246976225937501  0.14006173111601336  0.8896602215424421  1.0000
  O   O5        1.0  0.520879777044911  0.11986722703812092  0.07117596004066229  1.0000
  O   O6        1.0  0.4791213340746197  0.8801420643213619  0.9288261312899591  1.0000
  O   O7        1.0  0.2816348369638888  0.03765253127096461  0.05444106685828839  1.0000
  O   O8        1.0  0.7183716473193017  0.9623498813107718  0.9455619295440697  1.0000
  O   O9        1.0  0.7934993095373032  0.3367374014548546  0.042180765254101985  1.0000
  O   O10       1.0  0.2064994943715278  0.6632611104409707  0.9578180205480676  1.0000
  O   O11       1.0  0.9229559948426386  0.21565696919133623  0.9468515632961214  1.0000
  O   O12       1.0  0.07704556195509606  0.7843461982371738  0.053139331558192324  1.0000
  O   O13       1.0  0.8220512785269564  0.21215381884557166  0.1990447411215612  1.0000
  O   O14       1.0  0.17794524490489766  0.7878304198484759  0.8009423528437479  1.0000
  O   O15       1.0  0.9292750731014294  0.13303341520809656  0.12913929360114199  1.0000
  O   O16       1.0  0.07073436540920885  0.8669912645149938  0.8708826092356288  1.0000
  O   O17       1.0  0.9745975066647645  0.17530722785715375  0.2821402330060677  1.0000
  O   O18       1.0  0.02535645368853092  0.8246918880167445  0.7178472859443943  1.0000
