data_image0
_chemical_formula_structural       Sm2H8C24O16F12
_chemical_formula_sum              "Sm2 H8 C24 O16 F12"
_cell_length_a       8.807483579998879
_cell_length_b       8.807228178460335
_cell_length_c       11.511697436683916
_cell_angle_alpha    105.92891254612292
_cell_angle_beta     111.78698167723229
_cell_angle_gamma    98.96621985678097

_space_group_name_H-M_alt    "P 1"
_space_group_IT_number       1

loop_
  _space_group_symop_operation_xyz
  'x, y, z'

loop_
  _atom_site_type_symbol
  _atom_site_label
  _atom_site_symmetry_multiplicity
  _atom_site_fract_x
  _atom_site_fract_y
  _atom_site_fract_z
  _atom_site_occupancy
  Sm  Sm1       1.0  0.6450585307468442  0.8379990557539114  0.4833132169790559  1.0000
  Sm  Sm2       1.0  0.3549430128338855  0.16200283256624462  0.5166907871798543  1.0000
  H   H1        1.0  0.8411328930735065  0.8544420063954303  0.31073639978206546  1.0000
  H   H2        1.0  0.5432610637128263  0.5306176964358471  0.6892256048394216  1.0000
  H   H3        1.0  0.1588702641177306  0.1455611396294927  0.6892666034115038  1.0000
  H   H4        1.0  0.4567485478133264  0.4693903934094763  0.3107759814547251  1.0000
  H   H5        1.0  0.9773178994893212  0.8520619170926622  0.44164886159444444  1.0000
  H   H6        1.0  0.41036214057046994  0.5359722724047769  0.5581267582874575  1.0000
  H   H7        1.0  0.02268242229301618  0.14794370519361166  0.5583565221654183  1.0000
  H   H8        1.0  0.5896422384905904  0.46402719765315936  0.4418731406639011  1.0000
  C   C1        1.0  0.25372294916358135  0.7538753946847694  0.4999425319121542  1.0000
  C   C2        1.0  0.7462685125123728  0.2461183819213204  0.5000472517377688  1.0000
  C   C3        1.0  0.12229683480969564  0.6225294186904622  0.4999642751742924  1.0000
  C   C4        1.0  0.8776909893668757  0.3774643982257472  0.5000262408684079  1.0000
  C   C5        1.0  0.1313208386437381  0.6096527328496606  0.6197835091498121  1.0000
  C   C6        1.0  0.9896403678391579  0.5116378295909172  0.38014981860630565  1.0000
  C   C7        1.0  0.8686677876590209  0.3903435490173379  0.3802077927457574  1.0000
  C   C8        1.0  0.010351093836796043  0.48835594701517226  0.61983996504361  1.0000
  C   C9        1.0  0.6166955954387204  0.14112329189715916  0.7572981563143487  1.0000
  C   C10       1.0  0.38331158174163693  0.8588885066848989  0.2427062034725154  1.0000
  C   C11       1.0  0.7473880053694871  0.13975156605327038  0.8865868836503452  1.0000
  C   C12       1.0  0.2526159724856214  0.8602465555310204  0.11341607165710606  1.0000
  C   C13       1.0  0.7056900540261211  0.036526423789581486  0.9493017057551186  1.0000
  C   C14       1.0  0.08672042208678472  0.7558201994667896  0.05072093447941477  1.0000
  C   C15       1.0  0.2943070408208967  0.9634769150836533  0.050698781370350283  1.0000
  C   C16       1.0  0.913294477374606  0.24417392599339385  0.9492832872230466  1.0000
  C   C17       1.0  0.823270866857051  0.03994972744460769  0.07161191598202528  1.0000
  C   C18       1.0  0.9679490437261791  0.7509723426687812  0.9283358824067562  1.0000
  C   C19       1.0  0.1767217883643751  0.9600511867879574  0.9283885176833522  1.0000
  C   C20       1.0  0.032056547560870285  0.2490268916224636  0.0716703835385246  1.0000
  C   C21       1.0  0.9900227774196895  0.14846892901999809  0.13799397653193074  1.0000
  C   C22       1.0  0.009975137912618746  0.8515292404147841  0.8620107743105762  1.0000
  C   C23       1.0  0.11331064406658702  0.16074623434045776  0.2735842453036668  1.0000
  C   C24       1.0  0.8866784014083748  0.8392434426157463  0.7264169636269385  1.0000
  O   O1        1.0  0.38300871580739215  0.714315376057847  0.49292764554235174  1.0000
  O   O2        1.0  0.22134092194350782  0.8902449927579709  0.5069436038368664  1.0000
  O   O3        1.0  0.6169823447340406  0.2856771100737205  0.5070634698223982  1.0000
  O   O4        1.0  0.7786541583013217  0.10975591393422225  0.49305576668623263  1.0000
  O   O5        1.0  0.8528774479890798  0.815066223443651  0.384260249250488  1.0000
  O   O6        1.0  0.4306234792701176  0.46875381466542626  0.6154120979305588  1.0000
  O   O7        1.0  0.14712409566307366  0.18493572287562898  0.6157420302671568  1.0000
  O   O8        1.0  0.5693833153847976  0.5312492620498189  0.38459103519087284  1.0000
  O   O9        1.0  0.6013011318792462  0.044204885626598404  0.6455274815427855  1.0000
  O   O10       1.0  0.3986987796604423  0.9558033213789017  0.35447577035855465  1.0000
  O   O11       1.0  0.5265789782664995  0.2381116241703012  0.7636683857978995  1.0000
  O   O12       1.0  0.473441098189852  0.7619137052497891  0.23633657518181653  1.0000
  O   O13       1.0  0.0679475310226465  0.06958483973713211  0.331239450722201  1.0000
  O   O14       1.0  0.737524613305915  0.7369884879717786  0.6692077675153526  1.0000
  O   O15       1.0  0.93204919987231  0.9304023168774265  0.6687581136781943  1.0000
  O   O16       1.0  0.2624635927532424  0.2630135288191084  0.3307994969641683  1.0000
  F   F1        1.0  0.5481063121597172  0.9296715238137947  0.890248669856554  1.0000
  F   F2        1.0  0.038708597576352574  0.6573395465071882  0.10978548931866776  1.0000
  F   F3        1.0  0.4518855040387564  0.07034204924865148  0.10974833383077964  1.0000
  F   F4        1.0  0.9613087548399406  0.3426434388239556  0.8902134005108023  1.0000
  F   F5        1.0  0.7685870874339215  0.9340639122590629  0.12287271072490578  1.0000
  F   F6        1.0  0.8109716967739828  0.6448488256664291  0.8770982626104527  1.0000
  F   F7        1.0  0.23140597810157706  0.0659344752534068  0.8771281301577218  1.0000
  F   F8        1.0  0.18903916394635437  0.3551439626306632  0.12291061016151159  1.0000
  F   F9        1.0  0.259661478208784  0.7147917583500814  0.7374766912660746  1.0000
  F   F10       1.0  0.9769098406222482  0.5223191477334055  0.26238388800865653  1.0000
  F   F11       1.0  0.7403299833243224  0.2852019022577537  0.262516541666379  1.0000
  F   F12       1.0  0.023084456355469633  0.4776720656126513  0.737606102036878  1.0000
