data_image0
_chemical_formula_structural       Zr6H52C60N12O32
_chemical_formula_sum              "Zr6 H52 C60 N12 O32"
_cell_length_a       14.899781960458785
_cell_length_b       14.890336431122822
_cell_length_c       14.885751912125713
_cell_angle_alpha    60.07342443935706
_cell_angle_beta     60.09195372133345
_cell_angle_gamma    60.06229807707266

_space_group_name_H-M_alt    "P 1"
_space_group_IT_number       1

loop_
  _space_group_symop_operation_xyz
  'x, y, z'

loop_
  _atom_site_type_symbol
  _atom_site_label
  _atom_site_symmetry_multiplicity
  _atom_site_fract_x
  _atom_site_fract_y
  _atom_site_fract_z
  _atom_site_occupancy
  Zr  Zr1       1.0  0.8810631943549794  0.38229494635956457  0.6189599591826604  1.0000
  Zr  Zr2       1.0  0.11866218718877501  0.6179202476293568  0.3805550336503599  1.0000
  Zr  Zr3       1.0  0.1190004063217246  0.38454910821581484  0.6168592451969416  1.0000
  Zr  Zr4       1.0  0.8830107097234006  0.6196620193069934  0.3793141791680554  1.0000
  Zr  Zr5       1.0  0.8818281238872174  0.6167765663018296  0.6201034957540726  1.0000
  Zr  Zr6       1.0  0.11750273812197792  0.3778893358101313  0.3853029202014042  1.0000
  H   H1        1.0  0.9066462636657848  0.408775381468082  0.7804844501394184  1.0000
  H   H2        1.0  0.9084414390177786  0.7798902052476605  0.40459651631587673  1.0000
  H   H3        1.0  0.27986350791969267  0.4060520841927299  0.4069215733652242  1.0000
  H   H4        1.0  0.9060663185444398  0.4058281142869971  0.4082567581100631  1.0000
  H   H5        1.0  0.5368489475173847  0.7496841675105298  0.8718172969842752  1.0000
  H   H6        1.0  0.6197853488592389  0.6657033286493143  0.9583248218295423  1.0000
  H   H7        1.0  0.45032646549668703  0.6650008098283278  0.12490672971412652  1.0000
  H   H8        1.0  0.36655265964382266  0.7515057010320945  0.03898503179969734  1.0000
  H   H9        1.0  0.24281526349169982  0.05196121884922171  0.3291803507806748  1.0000
  H   H10       1.0  0.15344624439149612  0.129622354727509  0.24980078858411048  1.0000
  H   H11       1.0  0.16188014751238458  0.95440216899388  0.2548480488698245  1.0000
  H   H12       1.0  0.2500303364756393  0.8761838299983392  0.3361148850468252  1.0000
  H   H13       1.0  0.5404982096057085  0.8716800239725656  0.3411283964326585  1.0000
  H   H14       1.0  0.6258483408588447  0.9555794927085937  0.25608494628869466  1.0000
  H   H15       1.0  0.4582780899781583  0.12499845205356759  0.25725980697949774  1.0000
  H   H16       1.0  0.37311495530476446  0.040898131361174525  0.3379848205280209  1.0000
  H   H17       1.0  0.8298392571326687  0.7431458420701135  0.05463634320010864  1.0000
  H   H18       1.0  0.7498849336533623  0.6549852574143666  0.12748480675291052  1.0000
  H   H19       1.0  0.758576228130508  0.6689456559051334  0.9478427607605865  1.0000
  H   H20       1.0  0.8422372875702847  0.7537248736007455  0.8746421022108988  1.0000
  H   H21       1.0  0.8380190097449401  0.04859565763155876  0.8699504896586632  1.0000
  H   H22       1.0  0.752972728856072  0.12879646019559488  0.9592976012067637  1.0000
  H   H23       1.0  0.757439133555444  0.9536310159530709  0.12272599997495333  1.0000
  H   H24       1.0  0.8418803830817367  0.8758324812556351  0.031727822336364224  1.0000
  H   H25       1.0  0.5452719620604256  0.3364078938670899  0.7468961472019513  1.0000
  H   H26       1.0  0.6270732182239273  0.252921828387926  0.6607667257496315  1.0000
  H   H27       1.0  0.4552086457027685  0.25633102180192663  0.6638402499957295  1.0000
  H   H28       1.0  0.37344066478463134  0.33892155875940216  0.7509457711814065  1.0000
  H   H29       1.0  0.3504725183444324  0.3251138805723384  0.16181750393010205  1.0000
  H   H30       1.0  0.4715630985840918  0.25547128487556126  0.0830623354610437  1.0000
  H   H31       1.0  0.6466320218537405  0.3406664004063202  0.8350072180909079  1.0000
  H   H32       1.0  0.5281306663647529  0.30802931901539665  0.9174488207091895  1.0000
  H   H33       1.0  0.833275541867458  0.842812277122917  0.6646991159002266  1.0000
  H   H34       1.0  0.755420076409159  0.9667697401677484  0.6841978370313907  1.0000
  H   H35       1.0  0.8390104199329825  0.1448574954581473  0.6786842080997599  1.0000
  H   H36       1.0  0.8060975573334945  0.026056218913410402  0.7431191569114969  1.0000
  H   H37       1.0  0.35125618763198213  0.16170738254865563  0.6619232479608641  1.0000
  H   H38       1.0  0.4717986278447839  0.08403507671217611  0.6897372472541788  1.0000
  H   H39       1.0  0.6449515390305223  0.832900110443056  0.6805714848003318  1.0000
  H   H40       1.0  0.5271397018345424  0.9168898650376391  0.7473526405723944  1.0000
  H   H41       1.0  0.16515923878348807  0.33235624690839655  0.844949294028801  1.0000
  H   H42       1.0  0.18719649718314466  0.25721418745262525  0.9684933923732899  1.0000
  H   H43       1.0  0.17466318487954158  0.338359658784256  0.14937361047419265  1.0000
  H   H44       1.0  0.2451966514494116  0.31129254287554886  0.028038940714210883  1.0000
  H   H45       1.0  0.16570104892875304  0.8482835402477062  0.159042817129574  1.0000
  H   H46       1.0  0.19689575055605246  0.9681719219098495  0.07594011656637163  1.0000
  H   H47       1.0  0.17585468832388068  0.1480669297953483  0.8353051803350553  1.0000
  H   H48       1.0  0.2501401442602785  0.025873899660225977  0.9058487789469893  1.0000
  H   H49       1.0  0.3475517932841895  0.6646735511827372  0.3291728068469482  1.0000
  H   H50       1.0  0.46963654298254176  0.6907040629946478  0.2569410488936938  1.0000
  H   H51       1.0  0.6482165379430428  0.6772067472698423  0.3396486615443023  1.0000
  H   H52       1.0  0.5290970344344714  0.7449812183549794  0.3075578015939015  1.0000
  C   C1        1.0  0.69293823937128  0.501379131509374  0.8012274865262651  1.0000
  C   C2        1.0  0.002669765362192195  0.7992877348143496  0.5035122439484779  1.0000
  C   C3        1.0  0.29958741681356565  0.49878027631648075  0.1947519729427753  1.0000
  C   C4        1.0  0.99922704406589  0.19352459392383273  0.5060908299006923  1.0000
  C   C5        1.0  0.004307671652902894  0.19702738990118007  0.8016006591498623  1.0000
  C   C6        1.0  0.6944666976683536  0.505304061349271  0.5011297332822834  1.0000
  C   C7        1.0  0.006432678373833676  0.7997460298175268  0.19160433850260003  1.0000
  C   C8        1.0  0.3016728266469072  0.5046097055250199  0.5001716159765549  1.0000
  C   C9        1.0  0.005908537042643062  0.5040053043295954  0.7988952615068283  1.0000
  C   C10       1.0  0.30038994293128246  0.19283744257781874  0.506769381309617  1.0000
  C   C11       1.0  0.0031263277868873816  0.49827415503755645  0.19679497199596335  1.0000
  C   C12       1.0  0.6951273500993552  0.8003204172933421  0.5051715408488558  1.0000
  C   C13       1.0  0.5938685750212757  0.49766898526954845  0.899970822591726  1.0000
  C   C14       1.0  0.3970492948245977  0.49747105977593975  0.09432781340943555  1.0000
  C   C15       1.0  0.5411500401306528  0.5769128426579043  0.9515525607668136  1.0000
  C   C16       1.0  0.44900417980215923  0.41445189677600763  0.04612519896392789  1.0000
  C   C17       1.0  0.4471119624323165  0.5777114621393195  0.042798436530439604  1.0000
  C   C18       1.0  0.5445864577731214  0.4159441955075208  0.9487245438755068  1.0000
  C   C19       1.0  0.5470116868266927  0.6782632022268372  0.945953403013604  1.0000
  C   C20       1.0  0.43972516269605677  0.6791061068628963  0.050347579240941714  1.0000
  C   C21       1.0  0.9946411107546709  0.09694674686738837  0.5060815341233037  1.0000
  C   C22       1.0  0.9985712576637839  0.8985131525592531  0.5072773931857595  1.0000
  C   C23       1.0  0.07301513268775042  0.04690234990735573  0.42558910977771097  1.0000
  C   C24       1.0  0.914870574696572  0.9492977637557016  0.5872639080402706  1.0000
  C   C25       1.0  0.07606793499534356  0.9517257079262362  0.4273973629417539  1.0000
  C   C26       1.0  0.914376120227118  0.04583874799827453  0.5881103680697561  1.0000
  C   C27       1.0  0.17091557301642274  0.05716928191785081  0.3210387921123541  1.0000
  C   C28       1.0  0.17586364761277193  0.9470684926666093  0.32447206728572536  1.0000
  C   C29       1.0  0.5964119893701607  0.8996714179187318  0.5087322236304528  1.0000
  C   C30       1.0  0.39947149507940344  0.09384529877371506  0.5102398465431079  1.0000
  C   C31       1.0  0.5451214743516177  0.9514000678115477  0.4295879734634766  1.0000
  C   C32       1.0  0.45069272258326976  0.045848735326877894  0.5901610953663974  1.0000
  C   C33       1.0  0.45124214885566266  0.042888290834120726  0.430780188700055  1.0000
  C   C34       1.0  0.5462556688717655  0.9485884438430076  0.5910149673974202  1.0000
  C   C35       1.0  0.5521234196677866  0.9452229817133997  0.32776097286934885  1.0000
  C   C36       1.0  0.44612730113093596  0.05085615898773441  0.32790955587372383  1.0000
  C   C37       1.0  0.0050942478309040674  0.49460194607541297  0.09867416648026507  1.0000
  C   C38       1.0  0.009513188122092238  0.5004770016678391  0.8977783787254054  1.0000
  C   C39       1.0  0.9258852914791121  0.5739351477812205  0.047326639590934694  1.0000
  C   C40       1.0  0.08869642669154863  0.4162269963447469  0.9494637939306898  1.0000
  C   C41       1.0  0.9294379494655941  0.5782512908462182  0.950748967918905  1.0000
  C   C42       1.0  0.08821839656332735  0.41497599035925953  0.04702812385625063  1.0000
  C   C43       1.0  0.8220122823598075  0.6725800013440731  0.056743885936633216  1.0000
  C   C44       1.0  0.8281028087393525  0.6797185449849361  0.9444597891755463  1.0000
  C   C45       1.0  0.007224347213785692  0.09840128051830273  0.9010128395556051  1.0000
  C   C46       1.0  0.009658239112113122  0.8990213855827491  0.0929942713123069  1.0000
  C   C47       1.0  0.9274953027624662  0.047908315352472454  0.9523154307757126  1.0000
  C   C48       1.0  0.0900934490348888  0.9497252105199009  0.0452308724911247  1.0000
  C   C49       1.0  0.9296462793024175  0.9524734730041329  0.04217298131494108  1.0000
  C   C50       1.0  0.09049665595432543  0.04637760562600583  0.9488107732763355  1.0000
  C   C51       1.0  0.8254153234135941  0.056355065654528885  0.9454150482707603  1.0000
  C   C52       1.0  0.8282994053616477  0.9469536778496418  0.04751135125768952  1.0000
  C   C53       1.0  0.5967894993064746  0.5072489335403956  0.49671617762271575  1.0000
  C   C54       1.0  0.3997716699884037  0.5085070366386119  0.49796120744834116  1.0000
  C   C55       1.0  0.5458419218568411  0.4276067372849325  0.5752545326072038  1.0000
  C   C56       1.0  0.45060627682006066  0.58865208482446  0.41511222872291126  1.0000
  C   C57       1.0  0.4515971580061234  0.4290610020393755  0.5768785167420417  1.0000
  C   C58       1.0  0.5466065394957695  0.5893838233741063  0.41573340597602737  1.0000
  C   C59       1.0  0.5540341960639948  0.3248090145298618  0.6752283709961799  1.0000
  C   C60       1.0  0.44567689644492964  0.327013785998254  0.6777721014785314  1.0000
  N   N1        1.0  0.41073835821442367  0.3286909418015043  0.0869308077640055  1.0000
  N   N2        1.0  0.5863158175093305  0.3307810391681229  0.9098026875837916  1.0000
  N   N3        1.0  0.8313384484665108  0.9085095073117343  0.6717242027269561  1.0000
  N   N4        1.0  0.8299082924494455  0.08539471994163239  0.6717243195884562  1.0000
  N   N5        1.0  0.4112014832214542  0.0866332243088193  0.6739808104101215  1.0000
  N   N6        1.0  0.5868704823433358  0.9091591985361586  0.6746833126693943  1.0000
  N   N7        1.0  0.17286064332088819  0.33227627070114346  0.9092761649701088  1.0000
  N   N8        1.0  0.17139986023186546  0.3299582786267976  0.08730191957365452  1.0000
  N   N9        1.0  0.1744483437319815  0.9092149697725274  0.08464065076439904  1.0000
  N   N10       1.0  0.17530214175565123  0.08592963666970377  0.9087983796753177  1.0000
  N   N11       1.0  0.41060222111286754  0.6727033029548863  0.3311189039654109  1.0000
  N   N12       1.0  0.5872789584135985  0.6722211606808273  0.33103116510526565  1.0000
  O   O1        1.0  0.736437104795563  0.42607500525090075  0.75787882408288  1.0000
  O   O2        1.0  0.07782579333306218  0.7627227358866405  0.4249737188028106  1.0000
  O   O3        1.0  0.2621640404948452  0.5749444887729493  0.23373906893167629  1.0000
  O   O4        1.0  0.9244174114575969  0.23609955596635493  0.5820261544841542  1.0000
  O   O5        1.0  0.07907036696402507  0.24067985883129242  0.7591420505712279  1.0000
  O   O6        1.0  0.7370902403977341  0.5811354112072209  0.4264213327099638  1.0000
  O   O7        1.0  0.929119714306232  0.7617216743077361  0.23082714864391807  1.0000
  O   O8        1.0  0.26480729452666213  0.42631530102381976  0.5755135397505384  1.0000
  O   O9        1.0  0.9265759396957661  0.5779372901966365  0.7630023196921059  1.0000
  O   O10       1.0  0.2618838727251359  0.23061182773941616  0.43019625282508395  1.0000
  O   O11       1.0  0.07787321868329396  0.4223043425876439  0.24048156010207572  1.0000
  O   O12       1.0  0.7373965864020134  0.7564224422495583  0.5814021851930063  1.0000
  O   O13       1.0  0.25844182959077244  0.23704361434336346  0.5809455080355335  1.0000
  O   O14       1.0  0.9275338692897108  0.5760489967035908  0.23453730081057209  1.0000
  O   O15       1.0  0.7342586774903311  0.7636913081112836  0.42695074607546235  1.0000
  O   O16       1.0  0.08243074541634597  0.430370927557952  0.7538947817939388  1.0000
  O   O17       1.0  0.9278365090720943  0.23479924248475467  0.7630571697586886  1.0000
  O   O18       1.0  0.25834063081090614  0.579624045902193  0.42486209908361866  1.0000
  O   O19       1.0  0.08162268498026039  0.7565132788797583  0.23505116571931944  1.0000
  O   O20       1.0  0.7329318386158408  0.428326687855474  0.5778970182246113  1.0000
  O   O21       1.0  0.07686447393587773  0.23141478191311646  0.4306269073792278  1.0000
  O   O22       1.0  0.73193211141988  0.5775065152173513  0.763743159370371  1.0000
  O   O23       1.0  0.9284920886425498  0.7550091166300132  0.579461499751467  1.0000
  O   O24       1.0  0.2581489082718989  0.42192222515127026  0.2390533355181005  1.0000
  O   O25       1.0  0.9326459629714493  0.4326263002765528  0.43469207594747417  1.0000
  O   O26       1.0  0.20027002830455123  0.43244446568085937  0.43344953236467626  1.0000
  O   O27       1.0  0.9338659853846283  0.7002018218837658  0.43209895038684437  1.0000
  O   O28       1.0  0.9329100222731626  0.43446951838948394  0.7008072960377659  1.0000
  O   O29       1.0  0.0495495596702468  0.5505543539664616  0.5483452550070496  1.0000
  O   O30       1.0  0.8533202149718802  0.5495820181812331  0.5484018324134892  1.0000
  O   O31       1.0  0.0497059721432079  0.5474514330633085  0.3526082209683991  1.0000
  O   O32       1.0  0.04893097545311782  0.3516202603582885  0.5512089431128472  1.0000
