data_image0
_chemical_formula_structural       Al4H40C64O20
_chemical_formula_sum              "Al4 H40 C64 O20"
_cell_length_a       6.6855431363155535
_cell_length_b       22.422932573043028
_cell_length_c       23.821432638783243
_cell_angle_alpha    112.8162131354195
_cell_angle_beta     89.95019219689907
_cell_angle_gamma    89.79828548623189

_space_group_name_H-M_alt    "P 1"
_space_group_IT_number       1

loop_
  _space_group_symop_operation_xyz
  'x, y, z'

loop_
  _atom_site_type_symbol
  _atom_site_label
  _atom_site_symmetry_multiplicity
  _atom_site_fract_x
  _atom_site_fract_y
  _atom_site_fract_z
  _atom_site_occupancy
  Al  Al1       1.0  0.1014127018974307  0.49940352087645584  0.498789522012956  1.0000
  Al  Al2       1.0  0.6013651776474447  0.5007991865479509  0.5015741542568366  1.0000
  Al  Al3       1.0  0.7077154311916801  0.0006714175884355001  0.0012784989851795001  1.0000
  Al  Al4       1.0  0.20775355972132561  0.999078419721954  0.998389697560292  1.0000
  H   H1        1.0  0.6267173453044919  0.10537466209608941  0.8990493290639849  1.0000
  H   H2        1.0  0.6073964602280598  0.17144028683118506  0.8358958103493778  1.0000
  H   H3        1.0  0.2501716033042101  0.1673199082460997  0.8220859617650123  1.0000
  H   H4        1.0  0.2668304849917362  0.1027802889797584  0.8868677418502461  1.0000
  H   H5        1.0  0.18679873132255415  0.266952291936164  0.821992632475457  1.0000
  H   H6        1.0  0.16614049942976547  0.33133034008046286  0.758935767379221  1.0000
  H   H7        1.0  0.6224551637991453  0.23298390406744568  0.6777484271903946  1.0000
  H   H8        1.0  0.6427061814786441  0.16872083469582583  0.7409443963206216  1.0000
  H   H9        1.0  0.5585790564527713  0.33266137463213136  0.6777188526896724  1.0000
  H   H10       1.0  0.542250704521976  0.3971095146333141  0.6128239567520455  1.0000
  H   H11       1.0  0.1823155403382586  0.394508469196296  0.6007503476024497  1.0000
  H   H12       1.0  0.20143419932917792  0.3285612940255334  0.66406212459453  1.0000
  H   H13       1.0  0.14387716451403068  0.32305220579443267  0.34864001665530253  1.0000
  H   H14       1.0  0.5345392635964359  0.371835285954063  0.3270133958199537  1.0000
  H   H15       1.0  0.29723513624672654  0.22288114304201656  0.2722663505764658  1.0000
  H   H16       1.0  0.5129575064507463  0.27734148687247984  0.22766401770161349  1.0000
  H   H17       1.0  0.2757601159999155  0.12835759266230443  0.17288780118420288  1.0000
  H   H18       1.0  0.6661882454115756  0.1769603216893714  0.15134148961021052  1.0000
  H   H19       1.0  0.6423588981340204  0.675830988890624  0.6507667441752433  1.0000
  H   H20       1.0  0.03211791664924849  0.6300271508742271  0.6738569426841468  1.0000
  H   H21       1.0  0.797459372645214  0.7755007707010081  0.7266566443932451  1.0000
  H   H22       1.0  0.013084402150624898  0.7245018324066592  0.773468536028709  1.0000
  H   H23       1.0  0.7781458425324672  0.8700227320177163  0.8261986894364953  1.0000
  H   H24       1.0  0.16813915847929908  0.8240195149566389  0.8493193279286546  1.0000
  H   H25       1.0  0.1286028475725161  0.8942237777077152  0.10012577786178406  1.0000
  H   H26       1.0  0.10866702117776578  0.8284613304766141  0.16351867222214628  1.0000
  H   H27       1.0  0.7510608255389074  0.8325935010055474  0.1782718570447487  1.0000
  H   H28       1.0  0.7683236518699915  0.8968921997851426  0.11332052041692724  1.0000
  H   H29       1.0  0.6892184930635638  0.7331057177168817  0.1785886445570101  1.0000
  H   H30       1.0  0.667910691392443  0.6688050396039457  0.24165754329668937  1.0000
  H   H31       1.0  0.11980877419876632  0.7669604336905633  0.32166433934631306  1.0000
  H   H32       1.0  0.1407793774187667  0.831134507667791  0.2584787218453074  1.0000
  H   H33       1.0  0.05793955463209951  0.6673026282944363  0.32180984019791486  1.0000
  H   H34       1.0  0.0408980418244198  0.6029360581876302  0.38672029639069905  1.0000
  H   H35       1.0  0.6804915495404983  0.6058288568722361  0.4000621059485783  1.0000
  H   H36       1.0  0.7003556845171064  0.6716621347099972  0.33672490822412027  1.0000
  H   H37       1.0  0.3551281744418873  0.41494066624515114  0.47478536681299505  1.0000
  H   H38       1.0  0.8527762480049431  0.5851659632676983  0.5234480231463438  1.0000
  H   H39       1.0  0.4534552269461827  0.08503024378923389  0.025101441320281  1.0000
  H   H40       1.0  0.9558215582297861  0.9148394955091772  0.9765776877943043  1.0000
  C   C1        1.0  0.3476712228521849  0.5920389733870907  0.5969857850334466  1.0000
  C   C2        1.0  0.35202925629096166  0.5627886385110799  0.4367850271278827  1.0000
  C   C3        1.0  0.8499551575750246  0.4082010869499443  0.40325326816211066  1.0000
  C   C4        1.0  0.8534576999048866  0.4374578880766152  0.5635052280982935  1.0000
  C   C5        1.0  0.7621127617177594  0.1193729596283859  0.8818664415177369  1.0000
  C   C6        1.0  0.7524432440339412  0.1557422978471905  0.8461824220360303  1.0000
  C   C7        1.0  0.9275540341252722  0.17422684468004948  0.8243802254113107  1.0000
  C   C8        1.0  0.11299826771137589  0.15469686228215096  0.8396948243272677  1.0000
  C   C9        1.0  0.12328645611388818  0.1183240366007254  0.8754794295577856  1.0000
  C   C10       1.0  0.947730187359916  0.1004218139905575  0.8970433276130836  1.0000
  C   C11       1.0  0.0640456749961587  0.2585004197726946  0.7897222120482754  1.0000
  C   C12       1.0  0.052419010094944  0.2948920275208522  0.7540276241492024  1.0000
  C   C13       1.0  0.8926428800003093  0.2872376420791767  0.7134515370247814  1.0000
  C   C14       1.0  0.7448813190901261  0.24150584049191792  0.7101416564012413  1.0000
  C   C15       1.0  0.7564234339211781  0.20515512952682968  0.7458703653418726  1.0000
  C   C16       1.0  0.9161615247265261  0.21281836301482573  0.7864650417071746  1.0000
  C   C17       1.0  0.6958097139909896  0.3452783654029972  0.660149675080561  1.0000
  C   C18       1.0  0.6856470891705442  0.38157944680038713  0.6243094062849084  1.0000
  C   C19       1.0  0.8612692919911495  0.39946577546415085  0.60277876486024  1.0000
  C   C20       1.0  0.04689099844684822  0.3805496322896857  0.6179726516628818  1.0000
  C   C21       1.0  0.05642307755598351  0.34425478930133824  0.653732255688958  1.0000
  C   C22       1.0  0.881270334103654  0.3258045494487902  0.675521338586421  1.0000
  C   C23       1.0  0.841154357557521  0.3520617199524736  0.3435346394794793  1.0000
  C   C24       1.0  0.9687556220541041  0.14798292255272824  0.15645151345834316  1.0000
  C   C25       1.0  0.16073506825335931  0.213436357629476  0.24514974413695265  1.0000
  C   C26       1.0  0.1490881442132235  0.1610255415516519  0.19058341172731738  1.0000
  C   C27       1.0  0.8042024558977943  0.18811353927048907  0.17773217626727705  1.0000
  C   C28       1.0  0.8139145050327342  0.24354404641012206  0.23267111373986188  1.0000
  C   C29       1.0  0.9960134588617322  0.2565436171180765  0.2672734521634511  1.0000
  C   C30       1.0  0.0057841285686138005  0.31194201545757483  0.32225862758787127  1.0000
  C   C31       1.0  0.6610221254673975  0.3390830646329306  0.30933668303168826  1.0000
  C   C32       1.0  0.6493416686981277  0.28669883626335485  0.2547785535817085  1.0000
  C   C33       1.0  0.33912483967177554  0.648343177373235  0.6566051071660157  1.0000
  C   C34       1.0  0.4710618223099842  0.8516733167856715  0.8434277265598599  1.0000
  C   C35       1.0  0.661420594398912  0.7854833815512733  0.7541821927626561  1.0000
  C   C36       1.0  0.6509308493626094  0.8378848015839536  0.8088261245915478  1.0000
  C   C37       1.0  0.30585846462030725  0.8122436109416497  0.8225764942449346  1.0000
  C   C38       1.0  0.31448230056678744  0.7568323297112941  0.7675905065718782  1.0000
  C   C39       1.0  0.49606018822946396  0.7430872386218965  0.7324787181517325  1.0000
  C   C40       1.0  0.5045462268886567  0.6876764532662989  0.677471627631782  1.0000
  C   C41       1.0  0.15933207098219532  0.6621393783525348  0.691227960142861  1.0000
  C   C42       1.0  0.1490279643167725  0.7144873859979339  0.7459044088076255  1.0000
  C   C43       1.0  0.2637711928530422  0.8803424426678959  0.11762521398663496  1.0000
  C   C44       1.0  0.2537486826664548  0.8441327749632563  0.15344225803746533  1.0000
  C   C45       1.0  0.428588202194355  0.8257409830315862  0.17560616100399068  1.0000
  C   C46       1.0  0.6140656716207644  0.845190472233959  0.16046562813344423  1.0000
  C   C47       1.0  0.6247072902365217  0.8814354082106419  0.12456034745041934  1.0000
  C   C48       1.0  0.44940461946679716  0.8992585547023069  0.10266303725483548  1.0000
  C   C49       1.0  0.565430543866718  0.7415676032490593  0.2106453343884881  1.0000
  C   C50       1.0  0.553366322606479  0.7052057490818341  0.24634693949133182  1.0000
  C   C51       1.0  0.3922296413375222  0.712825537020649  0.28662256344695447  1.0000
  C   C52       1.0  0.24349815829283725  0.7584750829903938  0.2895520249503037  1.0000
  C   C53       1.0  0.255503167062983  0.7948017281229199  0.2538139171513266  1.0000
  C   C54       1.0  0.41670500558572593  0.7872195591896085  0.21357778260009744  1.0000
  C   C55       1.0  0.19491797781451234  0.6547977385121582  0.3396926049843644  1.0000
  C   C56       1.0  0.184378213310822  0.6185390373653802  0.37557128408345625  1.0000
  C   C57       1.0  0.3596990795254341  0.6007686790075653  0.39748394086565514  1.0000
  C   C58       1.0  0.545319718730994  0.6197371682218815  0.3825882017085719  1.0000
  C   C59       1.0  0.5552774781596455  0.6559708505100301  0.346794807235419  1.0000
  C   C60       1.0  0.3804270356085269  0.6743176281463619  0.3246150734091416  1.0000
  C   C61       1.0  0.45698311773433187  0.9371561998898199  0.06327230896653183  1.0000
  C   C62       1.0  0.46201745005413397  0.9079698037279301  0.9030353987239297  1.0000
  C   C63       1.0  0.9555519008238206  0.062457985541080084  0.9363642785126561  1.0000
  C   C64       1.0  0.9597303936910605  0.0917960790338554  0.09675705298014492  1.0000
  O   O1        1.0  0.5197434764374691  0.5493727992954974  0.45457100995227523  1.0000
  O   O2        1.0  0.1805291899641759  0.5696223038401698  0.5723325951374891  1.0000
  O   O3        1.0  0.0210173216769576  0.451049358038908  0.5459256336452187  1.0000
  O   O4        1.0  0.18050371192128276  0.5474169111487512  0.4503788901626607  1.0000
  O   O5        1.0  0.021744485955551295  0.42855619230549274  0.4254653168198317  1.0000
  O   O6        1.0  0.5197991219821745  0.571302594725182  0.5747630958864819  1.0000
  O   O7        1.0  0.35247092315508155  0.4617374134580744  0.4918942132696956  1.0000
  O   O8        1.0  0.6823700361022135  0.43082000369461326  0.42800904044020177  1.0000
  O   O9        1.0  0.681736679053124  0.45268977003822636  0.5497235218223295  1.0000
  O   O10       1.0  0.8515669226852012  0.5384301920106437  0.5083643147457624  1.0000
  O   O11       1.0  0.28979614877545157  0.9285586136874497  0.9252555443783025  1.0000
  O   O12       1.0  0.6284990355357821  0.9525393954494774  0.049635266751764155  1.0000
  O   O13       1.0  0.787795498652855  0.0714926492422236  0.07458217066974271  1.0000
  O   O14       1.0  0.6290636247147673  0.9305090512275599  0.9276975734831299  1.0000
  O   O15       1.0  0.7879794817203419  0.04893760150027761  0.9539994477937771  1.0000
  O   O16       1.0  0.2892968566105907  0.9505270722126297  0.04546963848716961  1.0000
  O   O17       1.0  0.45660119016943673  0.03823635682463329  0.008134690343027306  1.0000
  O   O18       1.0  0.1271995682116867  0.047204117707998705  0.9501822384258178  1.0000
  O   O19       1.0  0.1271608748738444  0.06909782091878469  0.07197479352885951  1.0000
  O   O20       1.0  0.9575172175120484  0.961575586882141  0.9916875274121753  1.0000
