data_image0
_chemical_formula_structural       FeH24C18Se2N14
_chemical_formula_sum              "Fe1 H24 C18 Se2 N14"
_cell_length_a       7.679344364888298
_cell_length_b       9.160739018837294
_cell_length_c       10.227680266364844
_cell_angle_alpha    115.44506871165454
_cell_angle_beta     91.79727258752605
_cell_angle_gamma    93.91956193050652

_space_group_name_H-M_alt    "P 1"
_space_group_IT_number       1

loop_
  _space_group_symop_operation_xyz
  'x, y, z'

loop_
  _atom_site_type_symbol
  _atom_site_label
  _atom_site_symmetry_multiplicity
  _atom_site_fract_x
  _atom_site_fract_y
  _atom_site_fract_z
  _atom_site_occupancy
  Fe  Fe1       1.0  0.48239403489058214  0.9914616945618919  0.490259492263256  1.0000
  H   H1        1.0  0.7471017355961821  0.36687812086518795  0.6442558989024079  1.0000
  H   H2        1.0  0.26489302927198816  0.6356450522915367  0.3546955768872949  1.0000
  H   H3        1.0  0.89371759848121  0.9235894426702985  0.6256260964735676  1.0000
  H   H4        1.0  0.11457027710262928  0.08121998162569348  0.3789144045007902  1.0000
  H   H5        1.0  0.30679885747551333  0.7902962599084019  0.6693842181515991  1.0000
  H   H6        1.0  0.6709149771437524  0.20222296836587364  0.3275480822503098  1.0000
  H   H7        1.0  0.47236867418680367  0.2863469684388776  0.820005329144948  1.0000
  H   H8        1.0  0.5223359508885536  0.7015804189893516  0.16500236112409541  1.0000
  H   H9        1.0  0.0145166788795237  0.5458429399473842  0.7883097298816537  1.0000
  H   H10       1.0  0.9917111658010141  0.4593858886460822  0.2178696067530339  1.0000
  H   H11       1.0  0.20827378781110895  0.44560830870759827  0.7648340726199337  1.0000
  H   H12       1.0  0.7995398688494291  0.5620829315368285  0.24136939140243643  1.0000
  H   H13       1.0  0.16437425451021426  0.4055182229228222  0.9888466301957308  1.0000
  H   H14       1.0  0.8432263007075634  0.5992022882174907  0.016289178702031358  1.0000
  H   H15       1.0  0.17337505778850468  0.6133733984090384  0.026931598013675243  1.0000
  H   H16       1.0  0.8342645797645429  0.3916665952841072  0.9789188010483018  1.0000
  H   H17       1.0  0.2929652560194782  0.9997007649864859  0.08168294615124004  1.0000
  H   H18       1.0  0.7093534376106517  0.0036042160287124026  0.9192953709369435  1.0000
  H   H19       1.0  0.2810322447362807  0.8037781768406022  0.934039043078549  1.0000
  H   H20       1.0  0.719906543753133  0.1965895305694332  0.0704922135691959  1.0000
  H   H21       1.0  0.9809905668177875  0.8489286000731796  0.8538180877883335  1.0000
  H   H22       1.0  0.019194931521539598  0.15108870835803856  0.14967577691676584  1.0000
  H   H23       1.0  0.9928803968923888  0.845433929551632  0.02527485942225381  1.0000
  H   H24       1.0  0.008325805576283998  0.15457852917663928  0.9780663463000253  1.0000
  C   C1        1.0  0.3398364449299081  0.298874540360565  0.49976171032425043  1.0000
  C   C2        1.0  0.6489633850406166  0.7006107207041268  0.49646433969864034  1.0000
  C   C3        1.0  0.8165857620360338  0.27426313153521426  0.6581006397365172  1.0000
  C   C4        1.0  0.19463217319406567  0.728730414534212  0.34266800083803167  1.0000
  C   C5        1.0  0.8946196062965724  0.051616033397031906  0.6504698435470146  1.0000
  C   C6        1.0  0.1147410044866746  0.9534707915067173  0.3537308470852523  1.0000
  C   C7        1.0  0.33600357448808893  0.9198979255908598  0.7365631744906908  1.0000
  C   C8        1.0  0.647460495655089  0.0727611321283632  0.2580830431351657  1.0000
  C   C9        1.0  0.4206534900798502  0.17197956776288242  0.8173996977039337  1.0000
  C   C10       1.0  0.572438306568742  0.8182100337794794  0.17150949535964344  1.0000
  C   C11       1.0  0.07965102547200333  0.4546281553707275  0.8100452106783679  1.0000
  C   C12       1.0  0.9279942175161578  0.5510200525969183  0.1957674127072481  1.0000
  C   C13       1.0  0.09320453769018398  0.4966078349110531  0.9712535193167114  1.0000
  C   C14       1.0  0.91450537028237  0.5084505613880237  0.03436655167125472  1.0000
  C   C15       1.0  0.23543570237977463  0.9252864278378042  0.9709832779489036  1.0000
  C   C16       1.0  0.7654126566665981  0.07482293104020951  0.030968553402978206  1.0000
  C   C17       1.0  0.03573374745792529  0.9167837568515438  0.9669090668316683  1.0000
  C   C18       1.0  0.965078806246211  0.08323895913740392  0.0364240726275753  1.0000
  Se  Se1       1.0  0.2028360238801739  0.4355206679250117  0.4726575049102807  1.0000
  Se  Se2       1.0  0.7930872293017543  0.5738719948685543  0.5319349714169164  1.0000
  N   N1        1.0  0.4136347770636704  0.19683017587460233  0.514494679534792  1.0000
  N   N2        1.0  0.5666626735909545  0.7932444497516684  0.47390432208153754  1.0000
  N   N3        1.0  0.7629559471146193  0.11689387168840427  0.6071380368636099  1.0000
  N   N4        1.0  0.2502308100686008  0.887062576578245  0.3934597092545006  1.0000
  N   N5        1.0  0.9749832342307413  0.30108765867142046  0.7286030560572031  1.0000
  N   N6        1.0  0.0340797642717803  0.7041065443567404  0.2767966408401604  1.0000
  N   N7        1.0  0.026419099548107308  0.16068450064398832  0.7259643588575457  1.0000
  N   N8        1.0  0.9817654648705199  0.8449697947068844  0.2816466880112857  1.0000
  N   N9        1.0  0.405652668149841  0.02930743127210181  0.6941306033767489  1.0000
  N   N10       1.0  0.5741038643503842  0.9597837305122282  0.2949509236399805  1.0000
  N   N11       1.0  0.3116416968768333  0.9957185816253329  0.8794593530198328  1.0000
  N   N12       1.0  0.6858791265282917  0.9998742135125628  0.1180418714798465  1.0000
  N   N13       1.0  0.36580214498550834  0.15683460981612282  0.9331766582263015  1.0000
  N   N14       1.0  0.6382829547389548  0.837324834791268  0.060762400545030654  1.0000
