data_image0
_chemical_formula_structural       Cu4H16C16O24
_chemical_formula_sum              "Cu4 H16 C16 O24"
_cell_length_a       4.961842069116656
_cell_length_b       9.002098142864737
_cell_length_c       11.934460796981945
_cell_angle_alpha    90.00142906205626
_cell_angle_beta     90.00029489251654
_cell_angle_gamma    89.9992789610849

_space_group_name_H-M_alt    "P 1"
_space_group_IT_number       1

loop_
  _space_group_symop_operation_xyz
  'x, y, z'

loop_
  _atom_site_type_symbol
  _atom_site_label
  _atom_site_symmetry_multiplicity
  _atom_site_fract_x
  _atom_site_fract_y
  _atom_site_fract_z
  _atom_site_occupancy
  Cu  Cu1       1.0  0.5855538461612753  0.25693725979144943  0.2894890250380158  1.0000
  Cu  Cu2       1.0  0.4144307753882899  0.2569426281106004  0.7105083020009103  1.0000
  Cu  Cu3       1.0  0.9144357875628798  0.7430621620672614  0.7894888374669549  1.0000
  Cu  Cu4       1.0  0.0855521442090605  0.7430566263606979  0.2105092303040621  1.0000
  H   H1        1.0  0.7352005188993401  0.3342734180516659  0.5071436307393711  1.0000
  H   H2        1.0  0.26491540058962926  0.3342304224750521  0.4928593363813363  1.0000
  H   H3        1.0  0.7649867734541899  0.665791067596423  0.0071350714375455  1.0000
  H   H4        1.0  0.2352890597006265  0.6656871038897164  0.9928548427656949  1.0000
  H   H5        1.0  0.16304753459750998  0.11348009393377369  0.36295100645399  1.0000
  H   H6        1.0  0.8369483350027167  0.1134800161404996  0.6370561978667482  1.0000
  H   H7        1.0  0.33693546352948545  0.8865331021092262  0.8629407940526191  1.0000
  H   H8        1.0  0.6630492815774574  0.886518794371284  0.1370490723886277  1.0000
  H   H9        1.0  0.7191705850451625  0.6247892236165599  0.4487155482742935  1.0000
  H   H10       1.0  0.2807978045518382  0.6247847098520439  0.5512828143616915  1.0000
  H   H11       1.0  0.7807910051625058  0.3752210324418712  0.948712394704181  1.0000
  H   H12       1.0  0.21915874339322977  0.37519260205029076  0.051282123584762494  1.0000
  H   H13       1.0  0.3434902450566709  0.905431292451944  0.4178869369356804  1.0000
  H   H14       1.0  0.6565222954989592  0.9054317892287005  0.5821091495773203  1.0000
  H   H15       1.0  0.15649955401751467  0.09457928207388018  0.91789252604692  1.0000
  H   H16       1.0  0.843482627861185  0.09456964290281182  0.0821176752217738  1.0000
  C   C1        1.0  0.40407210148148914  0.5409715020032237  0.3451270421492226  1.0000
  C   C2        1.0  0.5959082266037754  0.5409748431448734  0.6548647206546505  1.0000
  C   C3        1.0  0.0959046059274371  0.45902666221105193  0.8451326498756302  1.0000
  C   C4        1.0  0.9040714964264254  0.4590090061905913  0.1548676303201262  1.0000
  C   C5        1.0  0.5888128283362236  0.5260082504721383  0.4474073584443374  1.0000
  C   C6        1.0  0.41116581681180264  0.5260061837911608  0.5525883131380027  1.0000
  C   C7        1.0  0.9111648670675834  0.47399640803514137  0.9474130096318873  1.0000
  C   C8        1.0  0.08881090280593901  0.47398227998829884  0.0525959305326111  1.0000
  C   C9        1.0  0.7390357703539505  0.9791308552501337  0.37354666367447464  1.0000
  C   C10       1.0  0.26096505638756884  0.9791256428904447  0.6264499675020119  1.0000
  C   C11       1.0  0.7609489716823532  0.020896903661011407  0.8735535830264497  1.0000
  C   C12       1.0  0.23903081597322984  0.020888597816593808  0.12645020847903513  1.0000
  C   C13       1.0  0.4730833349507932  0.0013985575453219  0.4363301889870357  1.0000
  C   C14       1.0  0.5269150241021876  0.0013993662182870002  0.5636715610043268  1.0000
  C   C15       1.0  0.026906717466587796  0.9986092958822115  0.9363290297903006  1.0000
  C   C16       1.0  0.9730815843827046  0.9986025652526039  0.0636704805135508  1.0000
  O   O1        1.0  0.344744166254209  0.4285502625668016  0.2852740440135833  1.0000
  O   O2        1.0  0.6552285819985784  0.428556276722297  0.7147256646496771  1.0000
  O   O3        1.0  0.15523978045088427  0.5714492494855179  0.7852801980385706  1.0000
  O   O4        1.0  0.8447499477084648  0.5714517746307025  0.21472889473646006  1.0000
  O   O5        1.0  0.3103432859728628  0.670451434251035  0.3320735349022144  1.0000
  O   O6        1.0  0.6896422276779576  0.6704578730364047  0.6679214949486862  1.0000
  O   O7        1.0  0.18961711903228456  0.3295474079453556  0.832074378347194  1.0000
  O   O8        1.0  0.8103437205941971  0.32954862624783493  0.16792263501076826  1.0000
  O   O9        1.0  0.8372769014809763  0.09258293721947551  0.31850453469272116  1.0000
  O   O10       1.0  0.16271943223713953  0.09258358265348932  0.6814980880466237  1.0000
  O   O11       1.0  0.6627131307742359  0.9074174466570499  0.8184968960277743  1.0000
  O   O12       1.0  0.3372731657985141  0.9074102663972075  0.18149838973972274  1.0000
  O   O13       1.0  0.8563282809148233  0.8581465397017997  0.38077763882318294  1.0000
  O   O14       1.0  0.14369135606020222  0.8581474774751143  0.6192209122555425  1.0000
  O   O15       1.0  0.6436666377599137  0.14184368994099827  0.8807824145555755  1.0000
  O   O16       1.0  0.3563144942366491  0.14183764136942054  0.1192236459899689  1.0000
  O   O17       1.0  0.7467374398517633  0.3938205790100326  0.4385152095092124  1.0000
  O   O18       1.0  0.2532421259368575  0.3938188213601705  0.5614712788978125  1.0000
  O   O19       1.0  0.7532441642271407  0.6061871174241277  0.938535608418036  1.0000
  O   O20       1.0  0.24674680814967334  0.6061643829112808  0.0614934077418923  1.0000
  O   O21       1.0  0.339993910217288  0.13724343528528488  0.4005081847334822  1.0000
  O   O22       1.0  0.6600054623100035  0.1372433727687508  0.5994969516730251  1.0000
  O   O23       1.0  0.16000572692762202  0.8627665626857918  0.9004988652305314  1.0000
  O   O24       1.0  0.8399835767933866  0.8627564140680589  0.0994922312021274  1.0000
