data_image0
_chemical_formula_structural       Co2H16C24N16
_chemical_formula_sum              "Co2 H16 C24 N16"
_cell_length_a       6.902566438186125
_cell_length_b       9.60361103400502
_cell_length_c       10.345820579290606
_cell_angle_alpha    109.90148364707834
_cell_angle_beta     102.97864410400328
_cell_angle_gamma    104.84380456152675

_space_group_name_H-M_alt    "P 1"
_space_group_IT_number       1

loop_
  _space_group_symop_operation_xyz
  'x, y, z'

loop_
  _atom_site_type_symbol
  _atom_site_label
  _atom_site_symmetry_multiplicity
  _atom_site_fract_x
  _atom_site_fract_y
  _atom_site_fract_z
  _atom_site_occupancy
  Co  Co1       1.0  0.09670516681265431  0.8868598275936177  0.3956132365178461  1.0000
  Co  Co2       1.0  0.9032930712519587  0.11314390280317352  0.6043895793555621  1.0000
  H   H1        1.0  0.1624177607362469  0.959583321701281  0.13667377288907548  1.0000
  H   H2        1.0  0.8375766826442543  0.040421681397177195  0.8633269350309335  1.0000
  H   H3        1.0  0.015325032135606896  0.796152363413384  0.8674700870280604  1.0000
  H   H4        1.0  0.9846696731670904  0.2038502409735087  0.1325298927431433  1.0000
  H   H5        1.0  0.7644653639147234  0.5095757967907627  0.7656065920186633  1.0000
  H   H6        1.0  0.23553607464402396  0.4904254815698294  0.23439689623823762  1.0000
  H   H7        1.0  0.566866332834607  0.28506042794661823  0.822761045937021  1.0000
  H   H8        1.0  0.43313042961611353  0.7149433246524451  0.17724155057854316  1.0000
  H   H9        1.0  0.4835080027624699  0.1942613387964442  0.007659810880966181  1.0000
  H   H10       1.0  0.5164902732697454  0.8057424183606653  0.9923401195426678  1.0000
  H   H11       1.0  0.52142382977555  0.26245893668118464  0.2787505883708263  1.0000
  H   H12       1.0  0.47858156240396704  0.7375471081761374  0.7212511669908536  1.0000
  H   H13       1.0  0.6927426539041122  0.46822440516189084  0.5377057523478043  1.0000
  H   H14       1.0  0.30725795385418303  0.5317781104159279  0.4622951048547889  1.0000
  H   H15       1.0  0.9319078597393187  0.7389776701868057  0.5939691807205988  1.0000
  H   H16       1.0  0.06809186659506138  0.2610260469278244  0.4060328926940712  1.0000
  C   C1        1.0  0.04886825289383973  0.8380992786326187  0.0898120565475081  1.0000
  C   C2        1.0  0.9511239546798437  0.16189259597802413  0.9101831363428872  1.0000
  C   C3        1.0  0.9635718056300177  0.7436864548111329  0.9379568101713359  1.0000
  C   C4        1.0  0.03643526080626455  0.25631712453183997  0.0620492454823491  1.0000
  C   C5        1.0  0.8278196477146978  0.5870959706872582  0.8823174611798024  1.0000
  C   C6        1.0  0.17217884520584895  0.4128994288408307  0.11767692559433837  1.0000
  C   C7        1.0  0.6335601940101937  0.3662318990423257  0.9386949558795123  1.0000
  C   C8        1.0  0.3664457923593075  0.6337753251495428  0.061308235052081377  1.0000
  C   C9        1.0  0.5872068915436159  0.3163365523919666  0.041265223142666174  1.0000
  C   C10       1.0  0.4127909889414808  0.6836635821185123  0.9587373526452082  1.0000
  C   C11       1.0  0.6278730758786323  0.38160514310785487  0.30569222242826294  1.0000
  C   C12       1.0  0.3721274235664679  0.6183913689519897  0.6943086283565947  1.0000
  C   C13       1.0  0.7222367617439575  0.49616792919803043  0.448821375639369  1.0000
  C   C14       1.0  0.277769723158201  0.5038344797305072  0.5511822826278063  1.0000
  C   C15       1.0  0.8592139366297857  0.6491387758908259  0.48183613413079474  1.0000
  C   C16       1.0  0.1407878904098112  0.35086019295924586  0.5181570078113964  1.0000
  C   C17       1.0  0.772826248092983  0.5251141711866295  0.9803438608900095  1.0000
  C   C18       1.0  0.22717301234867898  0.47487994652371407  0.01965796602138428  1.0000
  C   C19       1.0  0.6732817408562398  0.4217245708413626  0.19371217802362392  1.0000
  C   C20       1.0  0.32671501452821156  0.5782732496005564  0.806282717541464  1.0000
  C   C21       1.0  0.8634405423201983  0.6286221783959646  0.13079138715987432  1.0000
  C   C22       1.0  0.13655853213446525  0.3713743915465598  0.8692053970007763  1.0000
  C   C23       1.0  0.8125975542458547  0.5783327099207013  0.2364981134838544  1.0000
  C   C24       1.0  0.18740803657652794  0.4216708916245436  0.7635077228119798  1.0000
  N   N1        1.0  0.8367422054497738  0.9963149463902994  0.394857164839351  1.0000
  N   N2        1.0  0.16325541870272534  0.0036816635947047975  0.6051374763302633  1.0000
  N   N3        1.0  0.7713638428232698  0.02947769967692439  0.2952411998679167  1.0000
  N   N4        1.0  0.22863181983853995  0.9705237566937792  0.7047517927916757  1.0000
  N   N5        1.0  0.7111324821633501  0.05464835108280399  0.19338090288390927  1.0000
  N   N6        1.0  0.28887292441063994  0.945349193423844  0.8066306978937305  1.0000
  N   N7        1.0  0.3582201759920876  0.7820677197390962  0.42318228983783246  1.0000
  N   N8        1.0  0.6417797996086207  0.21793358974386473  0.5768200172446286  1.0000
  N   N9        1.0  0.5294203114200258  0.8582024447392199  0.512539036862762  1.0000
  N   N10       1.0  0.4705734547690241  0.14179539334692484  0.4874583054364053  1.0000
  N   N11       1.0  0.7009369109454295  0.9316256692870011  0.6067343856737892  1.0000
  N   N12       1.0  0.29906335188920247  0.06837325932460907  0.3932652696266885  1.0000
  N   N13       1.0  0.001989311535574101  0.7821052677802667  0.18557909295453345  1.0000
  N   N14       1.0  0.9980127718366205  0.21789722559528704  0.8144219836059179  1.0000
  N   N15       1.0  0.9049820643649652  0.691294438717179  0.37830222757373366  1.0000
  N   N16       1.0  0.0950196361159711  0.308704440931855  0.6217005325343621  1.0000
