data_image0
_chemical_formula_structural       Zn2H32C46N12O8
_chemical_formula_sum              "Zn2 H32 C46 N12 O8"
_cell_length_a       8.06689704370482
_cell_length_b       14.633642600895872
_cell_length_c       14.633260425182604
_cell_angle_alpha    94.48700772413181
_cell_angle_beta     103.41601999211623
_cell_angle_gamma    103.41606960770487

_space_group_name_H-M_alt    "P 1"
_space_group_IT_number       1

loop_
  _space_group_symop_operation_xyz
  'x, y, z'

loop_
  _atom_site_type_symbol
  _atom_site_label
  _atom_site_symmetry_multiplicity
  _atom_site_fract_x
  _atom_site_fract_y
  _atom_site_fract_z
  _atom_site_occupancy
  Zn  Zn1       1.0  0.5941118569198807  0.731728270435596  0.7479116313942245  1.0000
  Zn  Zn2       1.0  0.40588779056916746  0.252087445552057  0.2682714008444265  1.0000
  H   H1        1.0  0.137770338668659  0.6062339125446171  0.503085340981194  1.0000
  H   H2        1.0  0.8622177970074175  0.49691682179086877  0.3937632048033564  1.0000
  H   H3        1.0  0.13251080456925723  0.40857799309284093  0.704112207694408  1.0000
  H   H4        1.0  0.8674871210617922  0.29589670540694607  0.5914250534950228  1.0000
  H   H5        1.0  0.2909953834691025  0.8543503082242624  0.8954844139070134  1.0000
  H   H6        1.0  0.7090008783467565  0.1045103379645056  0.1456470656908166  1.0000
  H   H7        1.0  0.8238636942908215  0.003729108162311  0.04050112406343941  1.0000
  H   H8        1.0  0.17613157996823497  0.9594989109673406  0.9962683137338787  1.0000
  H   H9        1.0  0.8972674337012094  0.9275319691655  0.7654719826927874  1.0000
  H   H10       1.0  0.10273999216458658  0.2345306033657266  0.0724620590180578  1.0000
  H   H11       1.0  0.6107206385454448  0.9622423011070254  0.49302055278761264  1.0000
  H   H12       1.0  0.3892774700668795  0.5069812169354079  0.03775783106651429  1.0000
  H   H13       1.0  0.4513903614242308  0.7907656779984291  0.5439549658925458  1.0000
  H   H14       1.0  0.5486138719474809  0.4560432762232125  0.20923628472596786  1.0000
  H   H15       1.0  0.023127215081821393  0.08383455883934939  0.7827690021048639  1.0000
  H   H16       1.0  0.9768744186336917  0.21724053685824166  0.9161585078259267  1.0000
  H   H17       1.0  0.30232700698510934  0.12138869577442787  0.8874425471848824  1.0000
  H   H18       1.0  0.6976825225910801  0.11257120031480382  0.8786123331023461  1.0000
  H   H19       1.0  0.5376786355245144  0.26799435428450374  0.017011731163883288  1.0000
  H   H20       1.0  0.4623368386332629  0.9829994381665729  0.7320044199298935  1.0000
  H   H21       1.0  0.3633195209418999  0.37825108704419097  0.7659693803692562  1.0000
  H   H22       1.0  0.6366801755681238  0.2340340240130132  0.6217337529122134  1.0000
  H   H23       1.0  0.2968672766453366  0.27551073403591886  0.6240130606498155  1.0000
  H   H24       1.0  0.7031338445862828  0.3759900206141252  0.7244840950755673  1.0000
  H   H25       1.0  0.3744808852097919  0.20862209504461762  0.4720101860446988  1.0000
  H   H26       1.0  0.6255142322786753  0.5279878309754622  0.7913778740187782  1.0000
  H   H27       1.0  0.9786910360962082  0.22004842514608208  0.23120160155867353  1.0000
  H   H28       1.0  0.021298462940968814  0.7687909050507071  0.779947153499549  1.0000
  H   H29       1.0  0.8208685304408476  0.17915777043037903  0.37833243399397537  1.0000
  H   H30       1.0  0.17912968887204536  0.6216666007536419  0.8208428823735758  1.0000
  H   H31       1.0  0.8581127482993692  0.04385344336132851  0.4763863621672328  1.0000
  H   H32       1.0  0.1418846464865666  0.5236128578034496  0.9561463827508803  1.0000
  C   C1        1.0  0.3140315283830403  0.5761086300360886  0.6768610558484482  1.0000
  C   C2        1.0  0.6859690439570302  0.3231438113587757  0.42389495911132974  1.0000
  C   C3        1.0  0.1516994245899284  0.5128880251758048  0.6093333952025335  1.0000
  C   C4        1.0  0.8483021083361137  0.3906731205640669  0.4871170745847593  1.0000
  C   C5        1.0  0.07590756939429612  0.5384525974307195  0.5219813320451934  1.0000
  C   C6        1.0  0.9240927735452829  0.47802267886127936  0.46154868162207663  1.0000
  C   C7        1.0  0.07440440428034378  0.42614915405990667  0.6350484903503855  1.0000
  C   C8        1.0  0.9255862568297885  0.364958015123868  0.5738565556764428  1.0000
  C   C9        1.0  0.6293430802421794  0.8633502057781823  0.8973990112000365  1.0000
  C   C10       1.0  0.3706594397495592  0.10260093937488081  0.13665147198545213  1.0000
  C   C11       1.0  0.5630764721000927  0.9238325321840362  0.9609617033853938  1.0000
  C   C12       1.0  0.4369252923882527  0.03903698886632869  0.0761666792508962  1.0000
  C   C13       1.0  0.38099825883183763  0.9108531281167129  0.9493857297025841  1.0000
  C   C14       1.0  0.6190038434808615  0.0506133035521827  0.08914521119311299  1.0000
  C   C15       1.0  0.6824074207961104  0.9943956251501191  0.031390542512440306  1.0000
  C   C16       1.0  0.31759278675101404  0.9686091821627515  0.005602680323434594  1.0000
  C   C17       1.0  0.8010946166276297  0.9123204433415281  0.697239277962332  1.0000
  C   C18       1.0  0.19891033139636957  0.30276194007446117  0.0876743173602463  1.0000
  C   C19       1.0  0.6493666338221189  0.9278782949966313  0.554292791211239  1.0000
  C   C20       1.0  0.3506338422729982  0.445704703646868  0.0721181956669028  1.0000
  C   C21       1.0  0.5700743690824621  0.8446861275100727  0.5808078942824864  1.0000
  C   C22       1.0  0.42993008476475586  0.4191896107453842  0.1553122193125702  1.0000
  C   C23       1.0  0.9261131008797888  0.0547807123737982  0.6297754087419136  1.0000
  C   C24       1.0  0.07388626135291787  0.37023072500145554  0.9452156021079361  1.0000
  C   C25       1.0  0.040085337073719494  0.10503778487962019  0.7152152640053944  1.0000
  C   C26       1.0  0.9599147572343298  0.28479192467037256  0.8949568931022684  1.0000
  C   C27       1.0  0.1748359069637146  0.1842005416141816  0.7130489990110577  1.0000
  C   C28       1.0  0.8251672496534183  0.2869576304765644  0.8157903176745549  1.0000
  C   C29       1.0  0.34701555211109547  0.19602071956416003  0.8819329665216247  1.0000
  C   C30       1.0  0.6529962389427197  0.11807992872057578  0.8039746148438456  1.0000
  C   C31       1.0  0.46633042791742696  0.2697925040304625  0.9447338774355247  1.0000
  C   C32       1.0  0.5336717716751593  0.05527537455979831  0.7301993399630363  1.0000
  C   C33       1.0  0.38433419520961104  0.32899434610143163  0.8166107717020239  1.0000
  C   C34       1.0  0.61567159970361  0.18339437628961258  0.6709942891873129  1.0000
  C   C35       1.0  0.19200324070168048  0.21457295212877628  0.6265053650893011  1.0000
  C   C36       1.0  0.8080005728432054  0.37349894665344857  0.7854187372480653  1.0000
  C   C37       1.0  0.07366709653850019  0.1643878330683819  0.5427845365257583  1.0000
  C   C38       1.0  0.9263335474661644  0.4572187056667616  0.8356100699669895  1.0000
  C   C39       1.0  0.24683697089800205  0.20918311330129302  0.42752459749861776  1.0000
  C   C40       1.0  0.7531554943514963  0.5724738277890254  0.7908173159259988  1.0000
  C   C41       1.0  0.03714478396934603  0.21163015151435624  0.3034977890975483  1.0000
  C   C42       1.0  0.962845735481615  0.6964981668338411  0.7883670779817677  1.0000
  C   C43       1.0  0.9569085673197576  0.190423173261415  0.3748261802292704  1.0000
  C   C44       1.0  0.043084197959792896  0.6251712660771531  0.8095740438605292  1.0000
  C   C45       1.0  0.9415131665662668  0.08439491825372158  0.5432759885993974  1.0000
  C   C46       1.0  0.058487963000835946  0.45672888030909325  0.9156017201100042  1.0000
  N   N1        1.0  0.6661795343873251  0.8360363688290702  0.6697873571871753  1.0000
  N   N2        1.0  0.333825517907286  0.3302111720790322  0.1639594720620323  1.0000
  N   N3        1.0  0.7970240410233557  0.9702666396619081  0.628512540353519  1.0000
  N   N4        1.0  0.202977000290538  0.3714895758540067  0.029729103830966594  1.0000
  N   N5        1.0  0.4876973326379357  0.3523281928423359  0.9036091738074887  1.0000
  N   N6        1.0  0.5123108309512573  0.09639480458677947  0.6476673540130236  1.0000
  N   N7        1.0  0.2949382930823816  0.2337592759113036  0.7987978893503964  1.0000
  N   N8        1.0  0.7050677124006484  0.2012097271942679  0.7662319617459661  1.0000
  N   N9        1.0  0.2167505666026344  0.2226972312940418  0.3370804285629917  1.0000
  N   N10       1.0  0.7832430497692044  0.662915788876191  0.7773012224250027  1.0000
  N   N11       1.0  0.09221776482222308  0.19005702212695036  0.4534641422634067  1.0000
  N   N12       1.0  0.9077728626917008  0.5465350312590614  0.8099430871680369  1.0000
  O   O1        1.0  0.38472971263823313  0.6537450079576245  0.6485720392583687  1.0000
  O   O2        1.0  0.615272274127257  0.3514268696619213  0.3462541422318921  1.0000
  O   O3        1.0  0.37212753267211  0.5515287501128299  0.7562267545460841  1.0000
  O   O4        1.0  0.6278638335451774  0.24377842236270905  0.44847149314188783  1.0000
  O   O5        1.0  0.5094961129087281  0.7900681209718454  0.84641990277742  1.0000
  O   O6        1.0  0.4905040706028672  0.15357025108148287  0.209942419001905  1.0000
  O   O7        1.0  0.7873701586184154  0.8852051356516243  0.8942424543779097  1.0000
  O   O8        1.0  0.21263520334493077  0.10576409216401567  0.11478789827486928  1.0000
