data_image0
_chemical_formula_structural       Ba4H24C12N16O16
_chemical_formula_sum              "Ba4 H24 C12 N16 O16"
_cell_length_a       7.444194995492302
_cell_length_b       7.833969970367985
_cell_length_c       14.94116314904556
_cell_angle_alpha    94.38152755402282
_cell_angle_beta     90.02876157791222
_cell_angle_gamma    118.37199566886146

_space_group_name_H-M_alt    "P 1"
_space_group_IT_number       1

loop_
  _space_group_symop_operation_xyz
  'x, y, z'

loop_
  _atom_site_type_symbol
  _atom_site_label
  _atom_site_symmetry_multiplicity
  _atom_site_fract_x
  _atom_site_fract_y
  _atom_site_fract_z
  _atom_site_occupancy
  Ba  Ba1       1.0  0.1878245350484419  0.6713084132511328  0.6962310148000411  1.0000
  Ba  Ba2       1.0  0.5164274224613122  0.3284250022219199  0.803759973432399  1.0000
  Ba  Ba3       1.0  0.8121740601723457  0.3286929456058872  0.30376881883324097  1.0000
  Ba  Ba4       1.0  0.48357447465860287  0.6715749006269078  0.1962398042508937  1.0000
  H   H1        1.0  0.5626619868001442  0.909067384231847  0.8595845369883293  1.0000
  H   H2        1.0  0.6536338896941487  0.09093054863149062  0.6404116029273084  1.0000
  H   H3        1.0  0.43734197934634256  0.09093397052402713  0.14041462786082803  1.0000
  H   H4        1.0  0.3463632542224957  0.9090679065945156  0.3595894567163711  1.0000
  H   H5        1.0  0.3580148784407626  0.8997778219442696  0.8904876292963948  1.0000
  H   H6        1.0  0.4581561674957797  0.1001832274889338  0.6095435280927717  1.0000
  H   H7        1.0  0.6419897080004517  0.10022208555495382  0.10951281819736637  1.0000
  H   H8        1.0  0.5418451144740073  0.8998181315511716  0.39045630588262265  1.0000
  H   H9        1.0  0.23262666814859048  0.5952967307150419  0.45971690895433426  1.0000
  H   H10       1.0  0.6369625596107582  0.4045511973944684  0.040349485038539995  1.0000
  H   H11       1.0  0.7673746138211964  0.4047046283250638  0.5402829250210601  1.0000
  H   H12       1.0  0.36303676126210127  0.5954516132780583  0.9596497355895435  1.0000
  H   H13       1.0  0.1966186069273164  0.7717777105859442  0.48110513861676196  1.0000
  H   H14       1.0  0.42438789845218844  0.22815397711276833  0.018966295952388596  1.0000
  H   H15       1.0  0.803384023561577  0.22822365748034204  0.5188960344664011  1.0000
  H   H16       1.0  0.5756132678710484  0.7718444649859109  0.9810327557993971  1.0000
  H   H17       1.0  0.773408607057135  0.6969751630344592  0.5050874118786624  1.0000
  H   H18       1.0  0.07752102825414647  0.30323837419018673  0.9949049791842625  1.0000
  H   H19       1.0  0.22658730398695323  0.30302620010679254  0.4949130908808569  1.0000
  H   H20       1.0  0.9224800275671471  0.6967571599017078  0.005094629280613111  1.0000
  H   H21       1.0  0.5979342993418368  0.7805116280501923  0.5425470375895998  1.0000
  H   H22       1.0  0.8182257147778883  0.2195203250529403  0.9576955395298299  1.0000
  H   H23       1.0  0.40206429330665117  0.2194897263395106  0.4574521265753262  1.0000
  H   H24       1.0  0.18177813314974856  0.7804781082941902  0.04230217362735541  1.0000
  C   C1        1.0  0.6614638062688414  0.6182523886742572  0.6370932123698906  1.0000
  C   C2        1.0  0.04320136630602184  0.3815497704130238  0.8629413154385689  1.0000
  C   C3        1.0  0.3385288054484192  0.3817504349425107  0.3629080158079745  1.0000
  C   C4        1.0  0.9567956568194728  0.6184457589369219  0.1370576230447895  1.0000
  C   C5        1.0  0.7265500988461395  0.7586904660618645  0.5631699610352356  1.0000
  C   C6        1.0  0.9685232025027446  0.24131872257284942  0.9369572613567598  1.0000
  C   C7        1.0  0.2734465327054138  0.24131233996025256  0.4368285897823796  1.0000
  C   C8        1.0  0.03148053749524141  0.7586768072348137  0.0630416779818788  1.0000
  C   C9        1.0  0.8998668914027373  0.9486548076680138  0.5991293012821899  1.0000
  C   C10       1.0  0.9515655916224829  0.051332467167867414  0.9009369240323579  1.0000
  C   C11       1.0  0.10013304719254991  0.05134655128055242  0.4008705325221484  1.0000
  C   C12       1.0  0.048436179561676236  0.9486645008702581  0.09905939355390099  1.0000
  N   N1        1.0  0.0775425837283521  0.9739919090547889  0.6346000714829215  1.0000
  N   N2        1.0  0.10372150318100638  0.02588558774261431  0.865421634601887  1.0000
  N   N3        1.0  0.922453829391614  0.026005085421076005  0.36540026222924377  1.0000
  N   N4        1.0  0.8962802808646586  0.9741114026321046  0.1345780303261463  1.0000
  N   N5        1.0  0.18379954842789914  0.16599862728344317  0.6616899321143775  1.0000
  N   N6        1.0  0.017680313515221237  0.8339058651629473  0.8382463235365876  1.0000
  N   N7        1.0  0.816198213211173  0.8339983762186024  0.3383117407055565  1.0000
  N   N8        1.0  0.9823220882528716  0.1660896734878037  0.1617539545677076  1.0000
  N   N9        1.0  0.07554287374077967  0.25257362221386614  0.6435132385966682  1.0000
  N   N10       1.0  0.8228804869407825  0.7474767789941341  0.8564245468709757  1.0000
  N   N11       1.0  0.9244556135503644  0.7474248331036865  0.3564878212180673  1.0000
  N   N12       1.0  0.17712264305168898  0.2525202159394482  0.1435757876964701  1.0000
  N   N13       1.0  0.8946444644413775  0.11857582044613224  0.6041631228141711  1.0000
  N   N14       1.0  0.7762519425692814  0.8815416126543953  0.8958481482962171  1.0000
  N   N15       1.0  0.10535609187633803  0.8814240867784663  0.3958373241664218  1.0000
  N   N16       1.0  0.2237498389040837  0.11845537325299925  0.10415084716345997  1.0000
  O   O1        1.0  0.5227670793811753  0.6102798071003903  0.6879730614554943  1.0000
  O   O2        1.0  0.9121599024477192  0.38914652846096237  0.8120830966267221  1.0000
  O   O3        1.0  0.4772256454103427  0.38972592899048664  0.312028279477623  1.0000
  O   O4        1.0  0.08784871668930079  0.6108533837802099  0.18791802084856363  1.0000
  O   O5        1.0  0.7559193946411114  0.5193653660252054  0.6451778344845137  1.0000
  O   O6        1.0  0.23648724727698314  0.4806313185628782  0.8547073464923614  1.0000
  O   O7        1.0  0.24406856665792268  0.4806389045735813  0.3548221105355722  1.0000
  O   O8        1.0  0.7635167188695033  0.5193700361929957  0.1452918183567888  1.0000
  O   O9        1.0  0.45270087138092646  0.9397211711084382  0.8418190515637747  1.0000
  O   O10       1.0  0.5130046270429673  0.06013611122030233  0.6581711838359965  1.0000
  O   O11       1.0  0.5473038307068376  0.06028165333221122  0.15818217815360205  1.0000
  O   O12       1.0  0.48699323995344196  0.9398637913538935  0.341828593334128  1.0000
  O   O13       1.0  0.24203142433436403  0.6890243269801106  0.5106045120363802  1.0000
  O   O14       1.0  0.5525267509978419  0.3108452357054717  0.9894612358926338  1.0000
  O   O15       1.0  0.7579718213046576  0.310975584894898  0.48939660475468116  1.0000
  O   O16       1.0  0.4474724619453666  0.6891546714275805  0.010539210916903106  1.0000
