data_image0
_chemical_formula_structural       CuH30C32N4O4
_chemical_formula_sum              "Cu1 H30 C32 N4 O4"
_cell_length_a       8.593778416395603
_cell_length_b       8.861896880655605
_cell_length_c       10.754761375002914
_cell_angle_alpha    78.71840749360581
_cell_angle_beta     72.3220336569405
_cell_angle_gamma    64.96964783035807

_space_group_name_H-M_alt    "P 1"
_space_group_IT_number       1

loop_
  _space_group_symop_operation_xyz
  'x, y, z'

loop_
  _atom_site_type_symbol
  _atom_site_label
  _atom_site_symmetry_multiplicity
  _atom_site_fract_x
  _atom_site_fract_y
  _atom_site_fract_z
  _atom_site_occupancy
  Cu  Cu1       1.0  0.5000001704322086  0.49999995308930795  0.9999981679669147  1.0000
  H   H1        1.0  0.08947813002916394  0.411163214569207  0.143664417587658  1.0000
  H   H2        1.0  0.9105234028947891  0.5888372659503106  0.856336321746795  1.0000
  H   H3        1.0  0.27222685136602814  0.9327361464270966  0.6177224486577159  1.0000
  H   H4        1.0  0.7277650907073083  0.06726685367406299  0.38228110487747097  1.0000
  H   H5        1.0  0.8919433662419537  0.34243908421480995  0.050992197569229236  1.0000
  H   H6        1.0  0.10806113627265988  0.657560155431746  0.9490061694625638  1.0000
  H   H7        1.0  0.440222943010184  0.6977324460895887  0.2552176940501383  1.0000
  H   H8        1.0  0.5597806552066585  0.3022630629939656  0.7447805311921197  1.0000
  H   H9        1.0  0.1234300583233219  0.5863512745930708  0.27092191182295267  1.0000
  H   H10       1.0  0.8765667700158627  0.41365170017723324  0.7290814180010088  1.0000
  H   H11       1.0  0.37167572678069394  0.6369694794763846  0.5723682341214129  1.0000
  H   H12       1.0  0.6283198901265336  0.3630335162780939  0.42763351970636165  1.0000
  H   H13       1.0  0.6167829852596751  0.7788231502035288  0.35994556404961736  1.0000
  H   H14       1.0  0.3832171313866509  0.22117484889116676  0.6400549626223508  1.0000
  H   H15       1.0  0.20355901610421512  0.5567931298980183  0.4633581375068303  1.0000
  H   H16       1.0  0.7964383473794282  0.4432086292231504  0.5366415330780967  1.0000
  H   H17       1.0  0.36548802613828  0.026246449236339207  0.8686449355702379  1.0000
  H   H18       1.0  0.6345152591532254  0.9737528030221229  0.13135278799336442  1.0000
  H   H19       1.0  0.01759200492421788  0.9848608699430841  0.12116454110275748  1.0000
  H   H20       1.0  0.982413902285721  0.015140834383764498  0.87883590364752  1.0000
  H   H21       1.0  0.13520931882733578  0.11859102884393741  0.04673328852247488  1.0000
  H   H22       1.0  0.8647970945713154  0.8814094179724636  0.9532681596287417  1.0000
  H   H23       1.0  0.1752800690407596  0.9890271493469955  0.19231229790965185  1.0000
  H   H24       1.0  0.8247278976709254  0.0109695751716288  0.8076865652764269  1.0000
  H   H25       1.0  0.7869727206552498  0.7915178939213946  0.6912196392757365  1.0000
  H   H26       1.0  0.2130310708249681  0.20848010082661975  0.3087790876888121  1.0000
  H   H27       1.0  0.5939181309567373  0.9758371982930357  0.6805955560799859  1.0000
  H   H28       1.0  0.4060868893288827  0.024160800587594608  0.31940194929676113  1.0000
  H   H29       1.0  0.6345288569291939  0.7897966069402784  0.6140719696519454  1.0000
  H   H30       1.0  0.36547667533628203  0.210200142802158  0.3859256065977589  1.0000
  C   C1        1.0  0.0487706563595935  0.022190539914220212  0.5315756735841646  1.0000
  C   C2        1.0  0.9512207737338867  0.9778137093251261  0.4684278090780722  1.0000
  C   C3        1.0  0.012029287599709256  0.8064247419940502  0.4421148907060796  1.0000
  C   C4        1.0  0.9879626660559209  0.19357827485163173  0.557886797773115  1.0000
  C   C5        1.0  0.9456399711673739  0.47607398117471444  0.1712470317617372  1.0000
  C   C6        1.0  0.05436432071041246  0.5239227476905909  0.8287536311317536  1.0000
  C   C7        1.0  0.8675496213517064  0.6027623799276614  0.257475970630665  1.0000
  C   C8        1.0  0.13245029044894344  0.3972331167580522  0.742525919374998  1.0000
  C   C9        1.0  0.20112938712512105  0.8970326277224248  0.5680195791102064  1.0000
  C   C10       1.0  0.7988630669280781  0.10296912324054122  0.4319840452979378  1.0000
  C   C11       1.0  0.8366439528018146  0.4382461769273506  0.1201159422067947  1.0000
  C   C12       1.0  0.16336156788137388  0.5617505560705711  0.8798834990988951  1.0000
  C   C13       1.0  0.5845703699792605  0.636996078748901  0.23363467786654707  1.0000
  C   C14       1.0  0.415431993641036  0.36299941782977646  0.7663657014915158  1.0000
  C   C15       1.0  0.9790934205327636  0.6502803961372692  0.30808345328782116  1.0000
  C   C16       1.0  0.020906696113563314  0.3497176029574264  0.6919170733841467  1.0000
  C   C17       1.0  0.2559942980354604  0.7330737905797239  0.5422165681593256  1.0000
  C   C18       1.0  0.7440000900663719  0.26692920104213863  0.45778640725625047  1.0000
  C   C19       1.0  0.6815575337218502  0.6824237839062308  0.29080898069729233  1.0000
  C   C20       1.0  0.31844431791858324  0.3175729618106332  0.7091913277878203  1.0000
  C   C21       1.0  0.16228775692008654  0.6873731435207022  0.47942810699862537  1.0000
  C   C22       1.0  0.8377066485551977  0.3126298732179436  0.5205720708329622  1.0000
  C   C23       1.0  0.29043604209380175  0.8555933854499218  0.019519534023807128  1.0000
  C   C24       1.0  0.7095667428001421  0.14440713269124927  0.9804762536108598  1.0000
  C   C25       1.0  0.5479728938146448  0.7783655660421404  0.823703458959045  1.0000
  C   C26       1.0  0.4520279454483643  0.22163369469561905  0.17629484272417525  1.0000
  C   C27       1.0  0.3980935052701751  0.8947263360954739  0.9013104066327741  1.0000
  C   C28       1.0  0.6019075388385104  0.10527542705126791  0.09868653171673702  1.0000
  C   C29       1.0  0.14590322333009456  0.9964117529420234  0.09813812547877626  1.0000
  C   C30       1.0  0.85410198442775  0.0035887232308056006  0.9018608141482574  1.0000
  C   C31       1.0  0.6449115696982586  0.8394745038533885  0.6959922432128991  1.0000
  C   C32       1.0  0.3550910103500086  0.16052351187879316  0.30400490775546263  1.0000
  N   N1        1.0  0.9077042750503636  0.765683142600544  0.3882392888598575  1.0000
  N   N2        1.0  0.09229184225443987  0.23431858727122554  0.6117644008968597  1.0000
  N   N3        1.0  0.6599703048829041  0.5177245935719412  0.14847825101713852  1.0000
  N   N4        1.0  0.34003451055704653  0.48227090289969976  0.8515206176933104  1.0000
  O   O1        1.0  0.6137169739680031  0.6201125592567396  0.8515878999626663  1.0000
  O   O2        1.0  0.3862850825181068  0.3798866888691067  0.14841104518874457  1.0000
  O   O3        1.0  0.30422431923556537  0.7080234015091167  0.06938831839877219  1.0000
  O   O4        1.0  0.6957755134411628  0.2919783826217996  0.9306070439545522  1.0000
