data_image0
_chemical_formula_structural       Cu2H12C20S4N12
_chemical_formula_sum              "Cu2 H12 C20 S4 N12"
_cell_length_a       7.8443618756271105
_cell_length_b       8.912154531605172
_cell_length_c       8.912033019891357
_cell_angle_alpha    103.65264513663685
_cell_angle_beta     91.50806398162233
_cell_angle_gamma    91.51028647430677

_space_group_name_H-M_alt    "P 1"
_space_group_IT_number       1

loop_
  _space_group_symop_operation_xyz
  'x, y, z'

loop_
  _atom_site_type_symbol
  _atom_site_label
  _atom_site_symmetry_multiplicity
  _atom_site_fract_x
  _atom_site_fract_y
  _atom_site_fract_z
  _atom_site_occupancy
  Cu  Cu1       1.0  0.7500042367497742  0.36919426884494294  0.6307891038048085  1.0000
  Cu  Cu2       1.0  0.2500092893834633  0.6307991483975997  0.3692043190849149  1.0000
  H   H1        1.0  0.4046200173706466  0.45503791292168216  0.7826324099916351  1.0000
  H   H2        1.0  0.0953849716015824  0.2173700578041959  0.5449575005718545  1.0000
  H   H3        1.0  0.5953826128403391  0.5449696294179276  0.21737156684773856  1.0000
  H   H4        1.0  0.9046172991189395  0.7826294286475599  0.455045883856755  1.0000
  H   H5        1.0  0.2391837950211695  0.3579901749388554  0.9846283597358441  1.0000
  H   H6        1.0  0.2608150146766447  0.015383507974213707  0.6420126254499154  1.0000
  H   H7        1.0  0.7608124270398446  0.6420161326748041  0.015370693702379867  1.0000
  H   H8        1.0  0.7391860912284469  0.9846182378600615  0.357988961026294  1.0000
  H   H9        1.0  0.37477963678821175  0.1516705997609904  0.09665939117172682  1.0000
  H   H10       1.0  0.12519514704784032  0.9033442252208629  0.8483254449813418  1.0000
  H   H11       1.0  0.6252060144333383  0.8483262944562494  0.903328406019668  1.0000
  H   H12       1.0  0.8747994913169846  0.09665518856181879  0.15167322910220804  1.0000
  C   C1        1.0  0.4520758274090682  0.3662780791183806  0.8371957361894362  1.0000
  C   C2        1.0  0.04792324624885679  0.16280853739974077  0.6337186179082935  1.0000
  C   C3        1.0  0.5479254350355234  0.6337271027729585  0.1628054593652166  1.0000
  C   C4        1.0  0.9520793041180298  0.8371965509443483  0.3662792251609731  1.0000
  C   C5        1.0  0.36261127332453197  0.31262614036801034  0.9475787973652036  1.0000
  C   C6        1.0  0.1373848417474122  0.05242380078096429  0.6873786038864653  1.0000
  C   C7        1.0  0.6373887692406086  0.687380174764172  0.05242148282475512  1.0000
  C   C8        1.0  0.8626161453770892  0.9475757504020238  0.31262700460673903  1.0000
  C   C9        1.0  0.4381520726553774  0.20014050454714288  0.010534177030812891  1.0000
  C   C10       1.0  0.0618337811933074  0.9894688726893577  0.7998592569319458  1.0000
  C   C11       1.0  0.5618401216242714  0.7998612045332434  0.9894637947441397  1.0000
  C   C12       1.0  0.9381635085339325  0.010532836810377002  0.20013997437173006  1.0000
  C   C13       1.0  0.6669764812223136  0.19981933609370364  0.858930650095495  1.0000
  C   C14       1.0  0.8330103051874999  0.1410685957827056  0.800176670106936  1.0000
  C   C15       1.0  0.3330155435390055  0.8001790233776941  0.14107109786338157  1.0000
  C   C16       1.0  0.16698699751857046  0.8589330272689467  0.19981917593436554  1.0000
  C   C17       1.0  0.39333709217877544  0.3212530771317432  0.39077775467959  1.0000
  C   C18       1.0  0.10666281535839767  0.609234406100441  0.6787508035179073  1.0000
  C   C19       1.0  0.6066582315528635  0.6787353274792878  0.6092399338451602  1.0000
  C   C20       1.0  0.893341128732537  0.39077286979576786  0.3212430503113383  1.0000
  S   S1        1.0  0.44674420741859683  0.16052276023069106  0.42975084432818994  1.0000
  S   S2        1.0  0.0532700134421589  0.5702600345080455  0.8394661763447715  1.0000
  S   S3        1.0  0.5532593132838315  0.8394495405425032  0.5702681456554687  1.0000
  S   S4        1.0  0.9467403745865327  0.4297467448358958  0.1605097866367373  1.0000
  N   N1        1.0  0.6043627506545588  0.3095797962808007  0.7932060258832223  1.0000
  N   N2        1.0  0.8956289883140158  0.20679329122369686  0.6904127509822475  1.0000
  N   N3        1.0  0.39563453907268087  0.6904219132189339  0.20679320542044627  1.0000
  N   N4        1.0  0.1043695850092448  0.7932083535448128  0.30958425625683356  1.0000
  N   N5        1.0  0.5906840182178358  0.14418471532096788  0.9668719988239262  1.0000
  N   N6        1.0  0.9093062052789663  0.0331257293022205  0.8558133951785865  1.0000
  N   N7        1.0  0.40930803250114406  0.8558134712542793  0.03312297861020137  1.0000
  N   N8        1.0  0.0906934227316896  0.9668714038004325  0.14418717518831412  1.0000
  N   N9        1.0  0.6430265731358062  0.562931024070039  0.6446436596324363  1.0000
  N   N10       1.0  0.8569849424131134  0.3553749796186024  0.437055925008771  1.0000
  N   N11       1.0  0.3569754167607825  0.43706436123940756  0.35537905303807804  1.0000
  N   N12       1.0  0.1430257402118968  0.6446402878535833  0.5629375566953669  1.0000
