data_image0
_chemical_formula_structural       Ag8H32C48S8Br8O32
_chemical_formula_sum              "Ag8 H32 C48 S8 Br8 O32"
_cell_length_a       5.430780381012234
_cell_length_b       15.699157440288085
_cell_length_c       19.664120267669446
_cell_angle_alpha    92.79453821193363
_cell_angle_beta     90.00029252036074
_cell_angle_gamma    89.99984811608418

_space_group_name_H-M_alt    "P 1"
_space_group_IT_number       1

loop_
  _space_group_symop_operation_xyz
  'x, y, z'

loop_
  _atom_site_type_symbol
  _atom_site_label
  _atom_site_symmetry_multiplicity
  _atom_site_fract_x
  _atom_site_fract_y
  _atom_site_fract_z
  _atom_site_occupancy
  Ag  Ag1       1.0  0.4545131425999642  0.5289791176217304  0.27157188958900497  1.0000
  Ag  Ag2       1.0  0.9545074119884019  0.4710217124201461  0.2284331752610811  1.0000
  Ag  Ag3       1.0  0.5454926136932485  0.4710179649641758  0.7284294043595099  1.0000
  Ag  Ag4       1.0  0.045487296146234306  0.5289741437059658  0.7715655129548581  1.0000
  Ag  Ag5       1.0  0.29762064632641483  0.5147676579930973  0.4503965864703049  1.0000
  Ag  Ag6       1.0  0.7976070680554699  0.48523206933837304  0.049603161081478206  1.0000
  Ag  Ag7       1.0  0.702396158087396  0.4852326128921332  0.5496048705460197  1.0000
  Ag  Ag8       1.0  0.20238579869246112  0.5147701633921073  0.9503958532570209  1.0000
  H   H1        1.0  0.28426154393403646  0.34489392352243425  0.5271569774336555  1.0000
  H   H2        1.0  0.7842574704312214  0.6551075579048555  0.9728427542081877  1.0000
  H   H3        1.0  0.7157405295758181  0.6551108696190934  0.4728416592589326  1.0000
  H   H4        1.0  0.21575012718268743  0.3448921144088644  0.027156637789289603  1.0000
  H   H5        1.0  0.7892997865051967  0.6913094217480945  0.2303610203865389  1.0000
  H   H6        1.0  0.2892875938354181  0.30869209550442617  0.26964542123532453  1.0000
  H   H7        1.0  0.21072070067124574  0.30868507110604054  0.7696421755220514  1.0000
  H   H8        1.0  0.7107071142489049  0.6913177598353212  0.7303555087535685  1.0000
  H   H9        1.0  0.03955323535605971  0.25005641046789145  0.3653346923248648  1.0000
  H   H10       1.0  0.5395479183473314  0.7499414879808625  0.1346667084154944  1.0000
  H   H11       1.0  0.9604506796022106  0.7499469607773502  0.6346715006495316  1.0000
  H   H12       1.0  0.4604486311014639  0.25005949874296357  0.8653307163991999  1.0000
  H   H13       1.0  0.6506482726495619  0.08594938838350429  0.4988856650355942  1.0000
  H   H14       1.0  0.1506419432558914  0.914051027219777  0.0011149710838793895  1.0000
  H   H15       1.0  0.3493519595679615  0.9140540317209724  0.5011179874349524  1.0000
  H   H16       1.0  0.849352764839992  0.08594932184409737  0.9988824211174505  1.0000
  H   H17       1.0  0.35808044302665115  0.20282157026717576  0.5283046745991342  1.0000
  H   H18       1.0  0.8580692880815588  0.7971766778510981  0.9716954825648685  1.0000
  H   H19       1.0  0.6419087410304058  0.7971774643905432  0.4716946847759402  1.0000
  H   H20       1.0  0.141914371907518  0.20282235680794253  0.028303876807200402  1.0000
  H   H21       1.0  0.3912570413731515  0.7654884643445069  0.38533598269596336  1.0000
  H   H22       1.0  0.8912218466001536  0.23451569168970815  0.11466358712535653  1.0000
  H   H23       1.0  0.6087708112030867  0.23450986424190023  0.614666900790418  1.0000
  H   H24       1.0  0.1087636546992883  0.7654821555931405  0.8853311341196886  1.0000
  H   H25       1.0  0.35394113059137317  0.9667664520871423  0.24376462184515904  1.0000
  H   H26       1.0  0.8539260126235462  0.03323633894567019  0.2562404311795348  1.0000
  H   H27       1.0  0.6460664670896606  0.033229943979577584  0.756239179993841  1.0000
  H   H28       1.0  0.1460484406031526  0.9667708875839762  0.7437644331518386  1.0000
  H   H29       1.0  0.016696505840478403  0.8894458930785802  0.18211945633088084  1.0000
  H   H30       1.0  0.5167021921368048  0.11055958025777099  0.3178868837455511  1.0000
  H   H31       1.0  0.9833110918167663  0.11055307317305106  0.8178834597568143  1.0000
  H   H32       1.0  0.4832998813910337  0.8894521392030437  0.6821166845862763  1.0000
  C   C1        1.0  0.540655242646217  0.29425365367330863  0.4678348760404702  1.0000
  C   C2        1.0  0.040655538242774  0.7057442540197412  0.03216601780414409  1.0000
  C   C3        1.0  0.4593228933155374  0.7057440470362405  0.5321674667060847  1.0000
  C   C4        1.0  0.9593281217148614  0.29425420160892907  0.9678302603533597  1.0000
  C   C5        1.0  0.7294543956656342  0.3060912626478824  0.4199443617820721  1.0000
  C   C6        1.0  0.2294503691426684  0.6939104004296226  0.08005591738820071  1.0000
  C   C7        1.0  0.270551360592286  0.693908409666278  0.5800550302143962  1.0000
  C   C8        1.0  0.7705553870680577  0.30609314670525106  0.9199411297805684  1.0000
  C   C9        1.0  0.8940349508327117  0.24009555083802775  0.40218444650656693  1.0000
  C   C10       1.0  0.3940232458662578  0.7599040620684433  0.09781896287286432  1.0000
  C   C11       1.0  0.1059781709178083  0.7599052697634433  0.5978216160234241  1.0000
  C   C12       1.0  0.6059714622353739  0.24009627722376334  0.9021789374288361  1.0000
  C   C13       1.0  0.8677300961233743  0.16198230467312408  0.432134415645031  1.0000
  C   C14       1.0  0.36772792526180353  0.8380198909724681  0.0678680793071393  1.0000
  C   C15       1.0  0.13227197748085467  0.8380147388269774  0.5678689107029484  1.0000
  C   C16       1.0  0.6322723068805588  0.16198492171284326  0.9321295411837056  1.0000
  C   C17       1.0  0.6749314960146577  0.14775707097734161  0.4769275047904173  1.0000
  C   C18       1.0  0.1749281668980061  0.8522439902374898  0.023072174219201696  1.0000
  C   C19       1.0  0.32505952939531824  0.852242601340336  0.5230718871980216  1.0000
  C   C20       1.0  0.8250518103449593  0.14775383750333754  0.9769235632235649  1.0000
  C   C21       1.0  0.511190591150033  0.21360072484964113  0.49389843392020083  1.0000
  C   C22       1.0  0.011193115223214502  0.7863972555377  0.006099379197024693  1.0000
  C   C23       1.0  0.48879122745618997  0.7864015176551502  0.5061000723119093  1.0000
  C   C24       1.0  0.9888034342520554  0.21360178888993883  0.993899472081701  1.0000
  C   C25       1.0  0.0077911778129121  0.7854424160417108  0.24900933319568005  1.0000
  C   C26       1.0  0.5077850355431721  0.21455857838228093  0.2509977850787379  1.0000
  C   C27       1.0  0.99222010261272  0.21455076240714988  0.7509958298846514  1.0000
  C   C28       1.0  0.4922059898387659  0.7854480984280554  0.7490024737459962  1.0000
  C   C29       1.0  0.11511176411622163  0.7516909025291978  0.307229367480673  1.0000
  C   C30       1.0  0.615091062325874  0.24830953981235374  0.1927707217838446  1.0000
  C   C31       1.0  0.8849142471044119  0.2483061605085339  0.6927729426796178  1.0000
  C   C32       1.0  0.38489996306108765  0.7516901715920098  0.8072266378031188  1.0000
  C   C33       1.0  0.3092755440831212  0.7939741200196901  0.34145262519723474  1.0000
  C   C34       1.0  0.8092508477334234  0.20602423848521306  0.15855164273484956  1.0000
  C   C35       1.0  0.6907412603897712  0.20602099095237483  0.6585516195224415  1.0000
  C   C36       1.0  0.19073097088585916  0.7939729222797706  0.8414455863976686  1.0000
  C   C37       1.0  0.39185969295709105  0.8711433161039676  0.319037124462156  1.0000
  C   C38       1.0  0.8918547449058066  0.12885701367299157  0.18096225035859703  1.0000
  C   C39       1.0  0.6081497460454274  0.12885313859233347  0.6809636287756362  1.0000
  C   C40       1.0  0.1081289150579678  0.8711401666348875  0.8190339625741886  1.0000
  C   C41       1.0  0.28722012384110235  0.906443245950825  0.26181634115442887  1.0000
  C   C42       1.0  0.787214998654072  0.09356220574345998  0.23818470477384326  1.0000
  C   C43       1.0  0.7127893151552699  0.09355448406626006  0.7381844773080815  1.0000
  C   C44       1.0  0.21277050266106562  0.9064406744208422  0.7618138340726334  1.0000
  C   C45       1.0  0.0986190802297457  0.863399998870669  0.22721904827439943  1.0000
  C   C46       1.0  0.5986105844736046  0.13660610233917228  0.2727858894287323  1.0000
  C   C47       1.0  0.9013958828829091  0.13659954640958455  0.7727869490318755  1.0000
  C   C48       1.0  0.4013675514217425  0.863401830251689  0.7272154508144271  1.0000
  S   S1        1.0  0.768383389230671  0.4059860832773835  0.3828248212441921  1.0000
  S   S2        1.0  0.26838495514241606  0.5940091455256178  0.11717720665274102  1.0000
  S   S3        1.0  0.2316242084335016  0.5940090765552309  0.6171768829686217  1.0000
  S   S4        1.0  0.7316115943390004  0.40598862358122995  0.8828215794012663  1.0000
  S   S5        1.0  0.0051082347767988  0.6590503334717039  0.34464257096529144  1.0000
  S   S6        1.0  0.5050875362594597  0.34094958234908285  0.1553543171437965  1.0000
  S   S7        1.0  0.9949104110083553  0.3409467491111257  0.6553587229902507  1.0000
  S   S8        1.0  0.49489980635839  0.6590489612237459  0.8446373881123891  1.0000
  Br  Br1       1.0  0.09634027761041611  0.07236491929048577  0.4105318371529663  1.0000
  Br  Br2       1.0  0.5963393964766369  0.9276265656746145  0.0894698074836029  1.0000
  Br  Br3       1.0  0.9036489065272164  0.9276244918313166  0.5894700816389715  1.0000
  Br  Br4       1.0  0.4036682011265499  0.07237059508421588  0.9105274216629695  1.0000
  Br  Br5       1.0  0.6510602247850559  0.9306249545929646  0.3667136229111918  1.0000
  Br  Br6       1.0  0.15105307721388073  0.06937805054212019  0.1332851117049643  1.0000
  Br  Br7       1.0  0.34893264196594503  0.06937664047712389  0.633285358814952  1.0000
  Br  Br8       1.0  0.8489434722644661  0.9306203562251195  0.8667137069614059  1.0000
  O   O1        1.0  0.5214055847444499  0.4328786410292266  0.35938445293109583  1.0000
  O   O2        1.0  0.0214079664347437  0.5671198548824208  0.14061950114061264  1.0000
  O   O3        1.0  0.4786075369481608  0.5671235428380681  0.6406171019202916  1.0000
  O   O4        1.0  0.9785867416614737  0.43288871536487505  0.8593818717239402  1.0000
  O   O5        1.0  0.9449191566476784  0.3923838795260861  0.3267482922537042  1.0000
  O   O6        1.0  0.44492551659688223  0.6076182792716764  0.1732542868651734  1.0000
  O   O7        1.0  0.0550902823513724  0.6076144783797232  0.6732530669215322  1.0000
  O   O8        1.0  0.5550728742520266  0.392379470291388  0.8267455153905773  1.0000
  O   O9        1.0  0.8621620925713885  0.4665222997005002  0.4372340994711977  1.0000
  O   O10       1.0  0.36215756640268637  0.5334773870486201  0.06276622655779113  1.0000
  O   O11       1.0  0.137849187766399  0.5334760875198866  0.5627657354039428  1.0000
  O   O12       1.0  0.6378334590161076  0.46652163783699746  0.9372336409186559  1.0000
  O   O13       1.0  0.3926855900887958  0.36073436969522976  0.48852015205171995  1.0000
  O   O14       1.0  0.8926731786530412  0.6392647332268453  0.011476617938917898  1.0000
  O   O15       1.0  0.607305435243724  0.6392648017654421  0.5114720939192026  1.0000
  O   O16       1.0  0.10731232269699123  0.3607368227583193  0.9885243961846868  1.0000
  O   O17       1.0  0.22582465540450158  0.6070208170235105  0.3591510314489241  1.0000
  O   O18       1.0  0.725804911888183  0.39297956269792417  0.1408496866308013  1.0000
  O   O19       1.0  0.774195831724761  0.3929775506513379  0.6408498196319671  1.0000
  O   O20       1.0  0.27419163756597703  0.6070226798033501  0.8591488196093451  1.0000
  O   O21       1.0  0.8439044598236833  0.6159342388284653  0.2924471035859427  1.0000
  O   O22       1.0  0.3438974270392521  0.38407125420999916  0.20755044744372242  1.0000
  O   O23       1.0  0.15610313781591154  0.3840660222872997  0.7075548615257291  1.0000
  O   O24       1.0  0.6560899155310196  0.6159324297326518  0.7924394863098527  1.0000
  O   O25       1.0  0.8746449616834157  0.6865383665020913  0.40705192250408123  1.0000
  O   O26       1.0  0.374626912347047  0.3134581553046728  0.09294672976516692  1.0000
  O   O27       1.0  0.1253773668194853  0.31345870630818945  0.5929498795538352  1.0000
  O   O28       1.0  0.6253862093084238  0.6865339725713893  0.9070466817829798  1.0000
  O   O29       1.0  0.8235098330304782  0.7479417625431066  0.21242415246126004  1.0000
  O   O30       1.0  0.32350417732593684  0.2520616904457356  0.2875803919002351  1.0000
  O   O31       1.0  0.17650513004458904  0.25205847902756057  0.7875788288551676  1.0000
  O   O32       1.0  0.6764997375701826  0.7479474783730776  0.7124230459831723  1.0000
