data_image0
_chemical_formula_structural       Zn12H56C56N24O36
_chemical_formula_sum              "Zn12 H56 C56 N24 O36"
_cell_length_a       11.815171582233965
_cell_length_b       14.338622210044313
_cell_length_c       17.848874420356022
_cell_angle_alpha    89.99934986254986
_cell_angle_beta     89.99994605106288
_cell_angle_gamma    111.11798527036214

_space_group_name_H-M_alt    "P 1"
_space_group_IT_number       1

loop_
  _space_group_symop_operation_xyz
  'x, y, z'

loop_
  _atom_site_type_symbol
  _atom_site_label
  _atom_site_symmetry_multiplicity
  _atom_site_fract_x
  _atom_site_fract_y
  _atom_site_fract_z
  _atom_site_occupancy
  Zn  Zn1       1.0  0.9317529376621038  0.1135753441042837  0.16619006545656126  1.0000
  Zn  Zn2       1.0  0.8521249302019102  0.865031483695496  0.1448251144474497  1.0000
  Zn  Zn3       1.0  0.8811089662838612  0.39683745060396797  0.40733621694268857  1.0000
  Zn  Zn4       1.0  0.568254934208113  0.38642452903570756  0.6661896595539218  1.0000
  Zn  Zn5       1.0  0.6478702539747944  0.6349713452451908  0.6448246963274541  1.0000
  Zn  Zn6       1.0  0.618886825720189  0.10315686439880517  0.9073411475688644  1.0000
  Zn  Zn7       1.0  0.06824776818955758  0.8864220691001562  0.833810445455498  1.0000
  Zn  Zn8       1.0  0.1478749289166998  0.13496592867702617  0.8551759567242952  1.0000
  Zn  Zn9       1.0  0.11888040612446099  0.6031592042386507  0.5926620529386852  1.0000
  Zn  Zn10      1.0  0.4317448612311594  0.613576619826368  0.3338102910820807  1.0000
  Zn  Zn11      1.0  0.35212296242723806  0.36502830254903534  0.3551780556145019  1.0000
  Zn  Zn12      1.0  0.3811166825944026  0.896845035394321  0.09265936332199227  1.0000
  H   H1        1.0  0.9592071487067813  0.9838714273595172  0.23723373091649338  1.0000
  H   H2        1.0  0.80152077038894  0.2551498321675679  0.24620851617653733  1.0000
  H   H3        1.0  0.017722990934316746  0.580573838454022  0.4181385768423098  1.0000
  H   H4        1.0  0.8278486231056021  0.5925821273270699  0.4492248228887234  1.0000
  H   H5        1.0  0.7794601160636035  0.5639077589525243  0.3542918108258347  1.0000
  H   H6        1.0  0.1509932640330902  0.1276447424505776  0.03818665632341829  1.0000
  H   H7        1.0  0.9163821286532824  0.516048610121956  0.2673733386520993  1.0000
  H   H8        1.0  0.06378740206424983  0.5288597533365618  0.3000954988556188  1.0000
  H   H9        1.0  0.8449402604718158  0.7464358872082146  0.3748995457364117  1.0000
  H   H10       1.0  0.9910303151964683  0.750739358158981  0.40642807926587915  1.0000
  H   H11       1.0  0.12478450834009171  0.7089578120725901  0.3119581569199639  1.0000
  H   H12       1.0  0.0685633006219674  0.6758001422609182  0.2192718078904718  1.0000
  H   H13       1.0  0.9998912848125344  0.794069126801695  0.2713784679008882  1.0000
  H   H14       1.0  0.8793506965699155  0.6957985036675042  0.25617070899173905  1.0000
  H   H15       1.0  0.5407980343186907  0.5161216383215219  0.7372344568109384  1.0000
  H   H16       1.0  0.6984807950933886  0.24483972262723344  0.7462121130194176  1.0000
  H   H17       1.0  0.48226915778300855  0.9194182020148887  0.9181348113811012  1.0000
  H   H18       1.0  0.6721510599429337  0.9074223173387067  0.9492247219281396  1.0000
  H   H19       1.0  0.7205389005382303  0.9360967855012207  0.854289738942164  1.0000
  H   H20       1.0  0.3490061659286923  0.3723480905039054  0.5381850816364491  1.0000
  H   H21       1.0  0.5836255289549185  0.9839521719890669  0.7673720393365002  1.0000
  H   H22       1.0  0.43621718233406187  0.9711410083993713  0.800090173043621  1.0000
  H   H23       1.0  0.6550616364439392  0.7535675664957111  0.8748986086622778  1.0000
  H   H24       1.0  0.5089708482426404  0.7492605758498813  0.9064283931983823  1.0000
  H   H25       1.0  0.37521743186817946  0.791042747748115  0.8119550616057721  1.0000
  H   H26       1.0  0.43144186114061966  0.8241997360854965  0.7192672563829702  1.0000
  H   H27       1.0  0.5001110624767976  0.705933077433052  0.7713786197647323  1.0000
  H   H28       1.0  0.6206518477147256  0.804200219732799  0.756171015388496  1.0000
  H   H29       1.0  0.040796292163861395  0.0161244939140701  0.7627650992232233  1.0000
  H   H30       1.0  0.1984674255417644  0.7448363591600471  0.7537953563467994  1.0000
  H   H31       1.0  0.9822659243683134  0.4194198266799063  0.5818630546092649  1.0000
  H   H32       1.0  0.17214439850607013  0.40741901495028526  0.5507712059335076  1.0000
  H   H33       1.0  0.22053759628956726  0.43609637713660726  0.645704778240777  1.0000
  H   H34       1.0  0.8490074418161128  0.8723526707491515  0.9618144148480637  1.0000
  H   H35       1.0  0.08362613408950637  0.4839525470075188  0.7326271722406332  1.0000
  H   H36       1.0  0.9362156491323788  0.4711391567243268  0.6999111749025316  1.0000
  H   H37       1.0  0.15506305303278364  0.25356750703035397  0.6250987241100603  1.0000
  H   H38       1.0  0.008969349099864073  0.24925954863544322  0.593573552158581  1.0000
  H   H39       1.0  0.8752167182622229  0.2910388542850555  0.6880479565895071  1.0000
  H   H40       1.0  0.9314463296094431  0.32420026886310194  0.780732624821141  1.0000
  H   H41       1.0  0.00011463256319638757  0.20593053342895473  0.7286209224805233  1.0000
  H   H42       1.0  0.12065743504467717  0.3042004114225776  0.7438281211329425  1.0000
  H   H43       1.0  0.4592067103538612  0.4838772734220385  0.2627688553901634  1.0000
  H   H44       1.0  0.3015195211309134  0.7551606794539721  0.2537855965821336  1.0000
  H   H45       1.0  0.5177324622702103  0.0805851905880957  0.0818612174282336  1.0000
  H   H46       1.0  0.32784906145172243  0.09257957915028212  0.05077522870437429  1.0000
  H   H47       1.0  0.27946525969451136  0.06390660955985081  0.1457090911634609  1.0000
  H   H48       1.0  0.650989721815435  0.6276538018537323  0.461814308737992  1.0000
  H   H49       1.0  0.41638436357219183  0.0160527232890928  0.23262679076052709  1.0000
  H   H50       1.0  0.5637919946152082  0.0288661281380698  0.1999047352275554  1.0000
  H   H51       1.0  0.34493425130509786  0.24643432587134123  0.1250996611933246  1.0000
  H   H52       1.0  0.4910290783493849  0.2507428150986755  0.09356763561149249  1.0000
  H   H53       1.0  0.6247832777873867  0.20896438054075614  0.1880370453709901  1.0000
  H   H54       1.0  0.5685666002234484  0.17580964169709287  0.2807254108405957  1.0000
  H   H55       1.0  0.4998874966069664  0.2940710594832936  0.22861796930160946  1.0000
  H   H56       1.0  0.3793504879335288  0.19580093164386617  0.2438250134307722  1.0000
  C   C1        1.0  0.0670989454620496  0.25097721036237164  0.28471371405229456  1.0000
  C   C2        1.0  0.8894400031344958  0.2639050550948596  0.2694295210922206  1.0000
  C   C3        1.0  0.1133362600470562  0.3648722871617736  0.4091596862924476  1.0000
  C   C4        1.0  0.04875438456642909  0.3120393224402562  0.3414666016796559  1.0000
  C   C5        1.0  0.8823304367109019  0.1341006186100415  0.8593306145530162  1.0000
  C   C6        1.0  0.9267163992350405  0.1318774903614113  0.9369063708265203  1.0000
  C   C7        1.0  0.8579377225700286  0.6005349782444611  0.3907717918034805  1.0000
  C   C8        1.0  0.16236113413243197  0.21046246412240066  0.2629763626290966  1.0000
  C   C9        1.0  0.0660493115133249  0.12881592409704717  0.0163102281037979  1.0000
  C   C10       1.0  0.9919229301336687  0.5601849060670858  0.3037328307507252  1.0000
  C   C11       1.0  0.9129058236561819  0.7110006863865977  0.3705414269996154  1.0000
  C   C12       1.0  0.04356003664962328  0.6684859689431095  0.2787456271497888  1.0000
  C   C13       1.0  0.7680199117604471  0.1283341534042677  0.047616746554304284  1.0000
  C   C14       1.0  0.8805906184536596  0.1277442159958895  0.010120231895363898  1.0000
  C   C15       1.0  0.4329099865815138  0.24902269936356447  0.7847188070297477  1.0000
  C   C16       1.0  0.6105618833235766  0.2360930775420087  0.7694354933236552  1.0000
  C   C17       1.0  0.38667516282904296  0.13512403944918108  0.9091675211289142  1.0000
  C   C18       1.0  0.4512479280282591  0.1879611218559205  0.8414755980700546  1.0000
  C   C19       1.0  0.6176492311268333  0.36589149795942427  0.3593384550146297  1.0000
  C   C20       1.0  0.5732842139955849  0.36811633262879434  0.43689853165629694  1.0000
  C   C21       1.0  0.6420597977947722  0.899458489503438  0.8907695407643175  1.0000
  C   C22       1.0  0.3376455793992506  0.2895400505752832  0.7629828288782363  1.0000
  C   C23       1.0  0.4339508984176846  0.3711825082892801  0.5163147736707216  1.0000
  C   C24       1.0  0.5080788076024092  0.9398160066955941  0.8037280568819014  1.0000
  C   C25       1.0  0.5870928519201398  0.788995364330674  0.8705379703659233  1.0000
  C   C26       1.0  0.4564436933440277  0.8315166452747391  0.7787421142126545  1.0000
  C   C27       1.0  0.731981573789028  0.371666211150007  0.5476124500586579  1.0000
  C   C28       1.0  0.6194158827337616  0.3722500576222813  0.5101238441972953  1.0000
  C   C29       1.0  0.9328949865374625  0.7490201962102531  0.7152884776401791  1.0000
  C   C30       1.0  0.11054578375472346  0.7360833758328978  0.730570989865214  1.0000
  C   C31       1.0  0.886655004421634  0.6351325899459965  0.5908357822539897  1.0000
  C   C32       1.0  0.9512407201264353  0.6879588326006213  0.6585339092307976  1.0000
  C   C33       1.0  0.11767222488537495  0.8659012803794112  0.14066709504101735  1.0000
  C   C34       1.0  0.0732869779218815  0.868122167335805  0.063099182409303  1.0000
  C   C35       1.0  0.1420580340458955  0.3994646720737832  0.6092259178029024  1.0000
  C   C36       1.0  0.837634622473665  0.7895371861770072  0.7370235880149634  1.0000
  C   C37       1.0  0.9339562162276779  0.8711867249962424  0.98368804174536  1.0000
  C   C38       1.0  0.00808012108259957  0.43981400403147564  0.6962693609320778  1.0000
  C   C39       1.0  0.08709384064751897  0.2889982204219521  0.6294585236465906  1.0000
  C   C40       1.0  0.9564462066544835  0.33151443886265497  0.7212599260817354  1.0000
  C   C41       1.0  0.2319817719524693  0.8716655026714832  0.9523848848661273  1.0000
  C   C42       1.0  0.11941797025679793  0.8722576887840391  0.9898774776967869  1.0000
  C   C43       1.0  0.5670940424960165  0.750978453606308  0.2152845051614207  1.0000
  C   C44       1.0  0.38944195093412753  0.7639095698544764  0.23056781886079847  1.0000
  C   C45       1.0  0.613324632607771  0.8648771094081835  0.0908329897665041  1.0000
  C   C46       1.0  0.5487604658501014  0.8120422773270805  0.1585249128124815  1.0000
  C   C47       1.0  0.38234639432651113  0.6341059102534956  0.6406654174555513  1.0000
  C   C48       1.0  0.42670567919039826  0.6318795754188355  0.5630991779688799  1.0000
  C   C49       1.0  0.3579403872988678  0.10053967053367069  0.1092270483285915  1.0000
  C   C50       1.0  0.6623607950551644  0.710462599312251  0.23701936278658306  1.0000
  C   C51       1.0  0.5660462256868541  0.6288163960235097  0.4836868577545487  1.0000
  C   C52       1.0  0.49192796028818003  0.060193369409020606  0.1962674116392904  1.0000
  C   C53       1.0  0.41290459816925557  0.21100428766553855  0.1294569379428339  1.0000
  C   C54       1.0  0.5435608603126171  0.16849347597986508  0.22125279404644255  1.0000
  C   C55       1.0  0.26801457246653365  0.6283304503150119  0.4523852595611473  1.0000
  C   C56       1.0  0.38057843891520776  0.6277443601159545  0.48987610647092333  1.0000
  N   N1        1.0  0.9642524997905613  0.22183990337265413  0.2404866867172757  1.0000
  N   N2        1.0  0.0433045956324705  0.13295963541031597  0.9431322451519222  1.0000
  N   N3        1.0  0.9364849963864117  0.31819762494523474  0.330433107127284  1.0000
  N   N4        1.0  0.945976427706178  0.5495089015422323  0.3816095129123767  1.0000
  N   N5        1.0  0.9558553645449946  0.7205042375715037  0.2912019137474005  1.0000
  N   N6        1.0  0.9709339986765072  0.12558790509763176  0.05824201533881279  1.0000
  N   N7        1.0  0.5357540688507498  0.2781572255047848  0.740493445120947  1.0000
  N   N8        1.0  0.4566935662368651  0.3670316236501351  0.44313370013883  1.0000
  N   N9        1.0  0.5635168760826019  0.1817987353942385  0.8304401610809575  1.0000
  N   N10       1.0  0.5540227390699569  0.9504921948444433  0.8816068545663285  1.0000
  N   N11       1.0  0.5441463518760515  0.7794946437364346  0.7912030521888694  1.0000
  N   N12       1.0  0.5290741038866713  0.3744160239302304  0.5582389415111846  1.0000
  N   N13       1.0  0.035737520736908675  0.7781485316629072  0.7595171857953247  1.0000
  N   N14       1.0  0.9566962413596655  0.8670400198570647  0.05686714523110229  1.0000
  N   N15       1.0  0.06350476564436039  0.6817960410111965  0.6695690845834363  1.0000
  N   N16       1.0  0.05401887180405395  0.45048775906732164  0.6183915582642072  1.0000
  N   N17       1.0  0.04414905418445161  0.2794939265686907  0.7087985971600971  1.0000
  N   N18       1.0  0.029066643485990057  0.8744132445775249  0.9417596160751813  1.0000
  N   N19       1.0  0.46424957059205246  0.7218469163277348  0.2595087465379677  1.0000
  N   N20       1.0  0.5433003657626473  0.6329657829224901  0.5568684915536437  1.0000
  N   N21       1.0  0.43648708931313235  0.8182061540604831  0.16956259083388397  1.0000
  N   N22       1.0  0.44597666674686554  0.0495119429038198  0.11838917424032049  1.0000
  N   N23       1.0  0.45585898104513234  0.22050949978346782  0.2087952176535737  1.0000
  N   N24       1.0  0.4709279058012826  0.6255843798101068  0.4417582078304107  1.0000
  O   O1        1.0  0.8847861153961601  0.9805077892906267  0.21177838278548214  1.0000
  O   O2        1.0  0.13658613250431273  0.1470203793187395  0.2105873602071995  1.0000
  O   O3        1.0  0.21929722504782484  0.3674903594389248  0.425703541619697  1.0000
  O   O4        1.0  0.05568103843749131  0.4051740097370669  0.4502584718850144  1.0000
  O   O5        1.0  0.6787508299616576  0.13648184177901604  0.011012188489829098  1.0000
  O   O6        1.0  0.2669010454086377  0.23919071198107386  0.2963502930223711  1.0000
  O   O7        1.0  0.777630345173563  0.13646530514624539  0.8465074190511926  1.0000
  O   O8        1.0  0.9565848304698646  0.13449419674932978  0.8069323274254288  1.0000
  O   O9        1.0  0.7662268390914521  0.12319854153855661  0.11882910400849768  1.0000
  O   O10       1.0  0.6152173388240243  0.5194909335884005  0.711775109759287  1.0000
  O   O11       1.0  0.3634257946994878  0.3529822733904239  0.7105937956641879  1.0000
  O   O12       1.0  0.28069802862641074  0.1325019369046245  0.925706984476072  1.0000
  O   O13       1.0  0.444321362040462  0.09482311214740949  0.9502660755737792  1.0000
  O   O14       1.0  0.8212514972176592  0.3635183912666449  0.5110129522679329  1.0000
  O   O15       1.0  0.2331062223001155  0.26081124252471  0.7963559645468548  1.0000
  O   O16       1.0  0.7223705359258548  0.3635210692073158  0.3465062512526771  1.0000
  O   O17       1.0  0.5434180273079576  0.36549658097892035  0.3069346153523468  1.0000
  O   O18       1.0  0.7337789077474852  0.3768021252577966  0.6188303624428285  1.0000
  O   O19       1.0  0.1152157631414852  0.019490372367940302  0.7882221281228254  1.0000
  O   O20       1.0  0.8634177017705796  0.8529822681107075  0.789412030161337  1.0000
  O   O21       1.0  0.7806999665080382  0.6325145234075222  0.574298089778452  1.0000
  O   O22       1.0  0.9443093792834106  0.5948308665105343  0.5497409184776244  1.0000
  O   O23       1.0  0.32125541336700547  0.8635185660738358  0.9889877621475093  1.0000
  O   O24       1.0  0.7330958838834505  0.7608096867724541  0.7036496576179302  1.0000
  O   O25       1.0  0.22237101259133146  0.863533603316725  0.1534925315944733  1.0000
  O   O26       1.0  0.04341587537688697  0.8655032164456955  0.1930693040054692  1.0000
  O   O27       1.0  0.23377842637104598  0.8767996234335553  0.881170846639314  1.0000
  O   O28       1.0  0.384787862946851  0.4805109678497246  0.28822652164986806  1.0000
  O   O29       1.0  0.636578560333426  0.6470196272063617  0.2894095165234916  1.0000
  O   O30       1.0  0.7193053485476995  0.8674977208255542  0.07429464694382658  1.0000
  O   O31       1.0  0.5556828618642486  0.9051765464099831  0.04973555584584229  1.0000
  O   O32       1.0  0.1787432815247314  0.6364790161567413  0.48898643812717774  1.0000
  O   O33       1.0  0.7668958510524462  0.7391854246978226  0.2036456668869988  1.0000
  O   O34       1.0  0.2776145990427636  0.6364658664477788  0.6534965007494051  1.0000
  O   O35       1.0  0.4565760358344877  0.6345030676613562  0.6930658955516691  1.0000
  O   O36       1.0  0.26621652290076975  0.6231967774099941  0.3811701484641361  1.0000
