data_image0
_chemical_formula_structural       Ag4H30C34N12O18
_chemical_formula_sum              "Ag4 H30 C34 N12 O18"
_cell_length_a       6.989062373430326
_cell_length_b       11.687735117734462
_cell_length_c       13.2764776177741
_cell_angle_alpha    104.89072123380734
_cell_angle_beta     95.80952195319213
_cell_angle_gamma    95.85166530600905

_space_group_name_H-M_alt    "P 1"
_space_group_IT_number       1

loop_
  _space_group_symop_operation_xyz
  'x, y, z'

loop_
  _atom_site_type_symbol
  _atom_site_label
  _atom_site_symmetry_multiplicity
  _atom_site_fract_x
  _atom_site_fract_y
  _atom_site_fract_z
  _atom_site_occupancy
  Ag  Ag1       1.0  0.4472989660694894  0.11412572977570788  0.196187313317651  1.0000
  Ag  Ag2       1.0  0.552693243347882  0.8858755868559314  0.8038129896965742  1.0000
  Ag  Ag3       1.0  0.16621247586859766  0.18372585097178273  0.5655284981253104  1.0000
  Ag  Ag4       1.0  0.8337848309812584  0.8162719424390587  0.43447058657571347  1.0000
  H   H1        1.0  0.2369221484288673  0.5779699013236622  0.6822976413684573  1.0000
  H   H2        1.0  0.7630954862364517  0.42203703106979856  0.31770920660093077  1.0000
  H   H3        1.0  0.1969904913666696  0.6970758942359367  0.5299694788803251  1.0000
  H   H4        1.0  0.8030349939899466  0.30293468900269005  0.4700401550039288  1.0000
  H   H5        1.0  0.2421748430052518  0.5295164905628554  0.34691347530776545  1.0000
  H   H6        1.0  0.7578433442175622  0.47049311118413323  0.6530924864440664  1.0000
  H   H7        1.0  0.33145430782419544  0.3002413526314243  0.3093261738979222  1.0000
  H   H8        1.0  0.6685502653960141  0.699764543797606  0.6906766399999995  1.0000
  H   H9        1.0  0.29346503390727463  0.0101722704039062  0.45665679978645096  1.0000
  H   H10       1.0  0.7065431959175896  0.9898300891861352  0.5433447053135154  1.0000
  H   H11       1.0  0.35801978151891933  0.782327281061349  0.4293201542928884  1.0000
  H   H12       1.0  0.6419976029258834  0.21766978960359756  0.570676977486201  1.0000
  H   H13       1.0  0.4739026396307793  0.6165786110264192  0.26677527551051844  1.0000
  H   H14       1.0  0.5261074535701409  0.38342458955224146  0.7332167347230083  1.0000
  H   H15       1.0  0.5306874542962845  0.7368499487960135  0.11683303938399797  1.0000
  H   H16       1.0  0.4693074170239909  0.2631566897972703  0.8831610622470123  1.0000
  H   H17       1.0  0.9217619946230257  0.2520109297535171  0.1711195491447768  1.0000
  H   H18       1.0  0.07823023675977937  0.7479894431138517  0.8288730147279749  1.0000
  H   H19       1.0  0.7470712362219486  0.24961536029257297  0.9762827889770875  1.0000
  H   H20       1.0  0.2529249557149028  0.7503832721735004  0.023710386082043896  1.0000
  H   H21       1.0  0.9747257189183498  0.1250717405233388  0.8377726052391593  1.0000
  H   H22       1.0  0.02527221779572387  0.8749287019986268  0.1622225802890682  1.0000
  H   H23       1.0  0.29438404802483126  0.012485959695553103  0.8702284394623234  1.0000
  H   H24       1.0  0.7056168450128696  0.9875154285240625  0.12977089998285152  1.0000
  H   H25       1.0  0.14457331492301506  0.43316974641340517  0.944083699102265  1.0000
  H   H26       1.0  0.8554232058367502  0.5668164495584521  0.05591278828987364  1.0000
  H   H27       1.0  0.9451512144378426  0.49743298956052934  0.889357224330837  1.0000
  H   H28       1.0  0.054839692346561664  0.5025549888610498  0.11064684701708671  1.0000
  H   H29       1.0  0.19075996576605547  0.5450560647128881  0.8769928832257179  1.0000
  H   H30       1.0  0.80922962040178  0.45493991983590115  0.12301211469409169  1.0000
  C   C1        1.0  0.23412948781391654  0.5474702054419962  0.5977314440494226  1.0000
  C   C2        1.0  0.7658810946869609  0.45253755707931714  0.40227591148832426  1.0000
  C   C3        1.0  0.2205059989375684  0.6044333675297509  0.5193157073404465  1.0000
  C   C4        1.0  0.7795220447986324  0.3955754515681774  0.4806929407678027  1.0000
  C   C5        1.0  0.2436444620912823  0.5187464486050857  0.4256042224428569  1.0000
  C   C6        1.0  0.7563601111289273  0.48125944782394464  0.5743985914550649  1.0000
  C   C7        1.0  0.26850881182105013  0.4134114359064823  0.4520901022237425  1.0000
  C   C8        1.0  0.7315035858738523  0.5865910050229671  0.5479177002410083  1.0000
  C   C9        1.0  0.29990911365212725  0.30102456630439167  0.38903640664615574  1.0000
  C   C10       1.0  0.7000919480482036  0.6989786537771251  0.6109701254550401  1.0000
  C   C11       1.0  0.34153497259640625  0.009363926900086  0.38007404818201  1.0000
  C   C12       1.0  0.6584698423419864  0.9906357310394328  0.6199274089271682  1.0000
  C   C13       1.0  0.3908409113850624  0.8982596729884805  0.3243928996326275  1.0000
  C   C14       1.0  0.6091630152829949  0.10174264068637481  0.6756075807742405  1.0000
  C   C15       1.0  0.3967743959636607  0.7939017836252018  0.35528419934961153  1.0000
  C   C16       1.0  0.6032350093929965  0.2060987830241388  0.64471396977315  1.0000
  C   C17       1.0  0.45684415720603494  0.7088828560040312  0.2713565245965269  1.0000
  C   C18       1.0  0.5431632809819007  0.2911221340183374  0.7286402376070598  1.0000
  C   C19       1.0  0.48534535164527165  0.7654862383259485  0.19437780453791487  1.0000
  C   C20       1.0  0.5146519814211814  0.23451866142964653  0.805619077511153  1.0000
  C   C21       1.0  0.9602670435253413  0.21630461102089527  0.09331458525978317  1.0000
  C   C22       1.0  0.03972264880455606  0.7836975209265727  0.906678211150158  1.0000
  C   C23       1.0  0.8775380257587528  0.2119476438263845  0.9939393971962006  1.0000
  C   C24       1.0  0.12245522918114918  0.7880500378814401  0.00604887070717547  1.0000
  C   C25       1.0  0.9926677383490627  0.1473678000616445  0.9230868764515063  1.0000
  C   C26       1.0  0.0073290421598953895  0.8526344303404156  0.0769108918151176  1.0000
  C   C27       1.0  0.14098058915358544  0.11614916553989467  0.9839608225291698  1.0000
  C   C28       1.0  0.8590072617656902  0.8838511816546982  0.016033729605723638  1.0000
  C   C29       1.0  0.2963416947519448  0.051567839928608805  0.9549794024597275  1.0000
  C   C30       1.0  0.7036585392968462  0.9484370820027762  0.04501690732005413  1.0000
  C   C31       1.0  0.07238577036709158  0.3764004263507132  0.7812856152379268  1.0000
  C   C32       1.0  0.9276097723788579  0.6235955620648426  0.21871221223281617  1.0000
  C   C33       1.0  0.08816814919526188  0.46790040169131686  0.8789751429834212  1.0000
  C   C34       1.0  0.9118233681266827  0.5320902309019856  0.12102578243051444  1.0000
  N   N1        1.0  0.2956858614882307  0.20333676468163017  0.4201648780480127  1.0000
  N   N2        1.0  0.7043129097673031  0.796669087395827  0.5798390803884885  1.0000
  N   N3        1.0  0.34872761313288686  0.10667813540910488  0.3485925288897676  1.0000
  N   N4        1.0  0.6512688607879297  0.8933232372589259  0.6514103052951796  1.0000
  N   N5        1.0  0.4337979698630435  0.0351362471892926  0.022392581452791698  1.0000
  N   N6        1.0  0.5662011397440807  0.9648633410956363  0.9776062540009036  1.0000
  N   N7        1.0  0.06018322882013649  0.30303610869555087  0.702019687227036  1.0000
  N   N8        1.0  0.9398197447076341  0.6969617644910854  0.29798352560710134  1.0000
  N   N9        1.0  0.4353672430054303  0.3709650962765991  0.1257394631229687  1.0000
  N   N10       1.0  0.5646193288587256  0.6290299577563444  0.8742636405963324  1.0000
  N   N11       1.0  0.8396459043814559  0.06240789120631259  0.3532432321086176  1.0000
  N   N12       1.0  0.16034749300447257  0.9375845160186671  0.6467544311027353  1.0000
  O   O1        1.0  0.2627054373301476  0.4315888692972789  0.5587603858024011  1.0000
  O   O2        1.0  0.7372989619499393  0.5684170726771712  0.441249207244823  1.0000
  O   O3        1.0  0.44548205457532225  0.8804397884323122  0.22490314972899483  1.0000
  O   O4        1.0  0.5545152205110923  0.11956512650508701  0.7750959920365048  1.0000
  O   O5        1.0  0.12070895887532629  0.15909415934959978  0.08907960425243289  1.0000
  O   O6        1.0  0.8792822876037433  0.8409088945561151  0.9109157491120641  1.0000
  O   O7        1.0  0.5714799119951054  0.31960541943254844  0.1607719197546729  1.0000
  O   O8        1.0  0.4285183453562952  0.6803977531701763  0.8392314184217469  1.0000
  O   O9        1.0  0.32192687160628  0.4194148946389832  0.1873503948020883  1.0000
  O   O10       1.0  0.6780732438436841  0.5805909963596746  0.8126574203132364  1.0000
  O   O11       1.0  0.41664314507706723  0.3729036125179446  0.03073735121751038  1.0000
  O   O12       1.0  0.5833320023447114  0.6270770793951144  0.9692634080171202  1.0000
  O   O13       1.0  0.8312968114067798  0.10708276020856995  0.45072452321879547  1.0000
  O   O14       1.0  0.16870123862863542  0.892918590653444  0.5492731287792267  1.0000
  O   O15       1.0  0.818210679792685  0.1250273163211872  0.2891989514785749  1.0000
  O   O16       1.0  0.1817746569472121  0.8749605570215948  0.710797225542187  1.0000
  O   O17       1.0  0.8700042269454968  0.9541427289647826  0.32052130756697744  1.0000
  O   O18       1.0  0.12998185297995243  0.04584870182916489  0.6794734367507758  1.0000
