data_image0
_chemical_formula_structural       Y4H64C60N8O28
_chemical_formula_sum              "Y4 H64 C60 N8 O28"
_cell_length_a       9.678836487297428
_cell_length_b       13.869285033560502
_cell_length_c       16.304477425099407
_cell_angle_alpha    90.00040357145305
_cell_angle_beta     89.99987748760931
_cell_angle_gamma    105.52333966606005

_space_group_name_H-M_alt    "P 1"
_space_group_IT_number       1

loop_
  _space_group_symop_operation_xyz
  'x, y, z'

loop_
  _atom_site_type_symbol
  _atom_site_label
  _atom_site_symmetry_multiplicity
  _atom_site_fract_x
  _atom_site_fract_y
  _atom_site_fract_z
  _atom_site_occupancy
  Y   Y1        1.0  0.8262433440252509  0.5532110495647019  0.017691371781850797  1.0000
  Y   Y2        1.0  0.6737659311882495  0.9467877228535783  0.5176927389629213  1.0000
  Y   Y3        1.0  0.17375757604170874  0.4467865337644811  0.9823068704108876  1.0000
  Y   Y4        1.0  0.3262495718622631  0.0532127400540148  0.4823079565429395  1.0000
  H   H1        1.0  0.3038863326223193  0.6228427364775655  0.8153838454712595  1.0000
  H   H2        1.0  0.1961185825709039  0.8771587620575334  0.31539012482801343  1.0000
  H   H3        1.0  0.6961120961798244  0.37715636958203896  0.1846174633699816  1.0000
  H   H4        1.0  0.8038848623275143  0.12284255387265121  0.684610570688214  1.0000
  H   H5        1.0  0.4308614761828836  0.7230073131133921  0.6951802751152127  1.0000
  H   H6        1.0  0.06913525191023943  0.7769932785150359  0.19519040608824403  1.0000
  H   H7        1.0  0.569135457551745  0.2769880516128537  0.30481796707339015  1.0000
  H   H8        1.0  0.930862014404795  0.22300808980431694  0.804812742745966  1.0000
  H   H9        1.0  0.10219316231830793  0.8761373066318113  0.6783174842201871  1.0000
  H   H10       1.0  0.3977933744501669  0.6238557263957958  0.17831706512650666  1.0000
  H   H11       1.0  0.8977928421839182  0.1238513935407966  0.32167707798457457  1.0000
  H   H12       1.0  0.6022016660474351  0.37614265757926557  0.8216817904009017  1.0000
  H   H13       1.0  0.9767037569242163  0.7785576317628865  0.7993937956890276  1.0000
  H   H14       1.0  0.5232884236500509  0.7214345640392138  0.29939077006025616  1.0000
  H   H15       1.0  0.023284307105626595  0.22143105094998816  0.20060076651435566  1.0000
  H   H16       1.0  0.4767097061392462  0.27856379374125584  0.7006068588081644  1.0000
  H   H17       1.0  0.007029070386195715  0.9352986326806558  0.17572939943276814  1.0000
  H   H18       1.0  0.49297882707473656  0.5646987030352334  0.6757292710548339  1.0000
  H   H19       1.0  0.992978028263245  0.0646988982767951  0.8242706827412005  1.0000
  H   H20       1.0  0.5070169441720013  0.4352989239657105  0.3242744910974905  1.0000
  H   H21       1.0  0.8743697876424648  0.9886011025441801  0.1344710086770604  1.0000
  H   H22       1.0  0.6256351862357759  0.5114009072343179  0.634467352286492  1.0000
  H   H23       1.0  0.1256380753241828  0.011400926743171199  0.8655327534807639  1.0000
  H   H24       1.0  0.3743559014960026  0.4886005134717236  0.3655376365372333  1.0000
  H   H25       1.0  0.8538865108848127  0.9641206426053015  0.2901956567455385  1.0000
  H   H26       1.0  0.6461157393528437  0.5358811535117595  0.790193348581006  1.0000
  H   H27       1.0  0.1461192925546015  0.03588140413430809  0.7098062654282911  1.0000
  H   H28       1.0  0.3538709303101868  0.46411955384707676  0.20981102691495576  1.0000
  H   H29       1.0  0.6965523249627948  0.902442665410632  0.23579701757781624  1.0000
  H   H30       1.0  0.8034518415971945  0.5975556694208207  0.735794265874439  1.0000
  H   H31       1.0  0.30345391021316453  0.09755787607075209  0.7642049045911816  1.0000
  H   H32       1.0  0.19653951158027638  0.40244124424288685  0.2642113362639477  1.0000
  H   H33       1.0  0.7455689975897856  0.7872243462773199  0.3362046395137809  1.0000
  H   H34       1.0  0.754437053163912  0.7127770405313854  0.8362051010274596  1.0000
  H   H35       1.0  0.25443650683651947  0.2127769521881433  0.663794829344148  1.0000
  H   H36       1.0  0.24555373555411114  0.28722363191296557  0.1638005011226582  1.0000
  H   H37       1.0  0.9266638320809832  0.8106523053216318  0.3065943221440789  1.0000
  H   H38       1.0  0.5733395736841517  0.6893473617986032  0.8065924224748  1.0000
  H   H39       1.0  0.0733394465260631  0.18934600883441993  0.6934094400054673  1.0000
  H   H40       1.0  0.4266529755485066  0.3106525449093737  0.19341011302957153  1.0000
  H   H41       1.0  0.8733580388868062  0.9279483546936048  0.008097563815446998  1.0000
  H   H42       1.0  0.626642271537598  0.5720511665954433  0.5080979527957294  1.0000
  H   H43       1.0  0.12663730062430284  0.0720507775481281  0.9919019050424962  1.0000
  H   H44       1.0  0.37335144018099686  0.4279464778752029  0.4919082626718065  1.0000
  H   H45       1.0  0.772172309200073  0.8019866652139882  0.98892843864202  1.0000
  H   H46       1.0  0.7278277636049566  0.6980115079404  0.4889274606499611  1.0000
  H   H47       1.0  0.22782376106094662  0.19801171003868484  0.011072256870072298  1.0000
  H   H48       1.0  0.27216933641922486  0.3019868585948586  0.511076301503735  1.0000
  H   H49       1.0  0.9604376411977851  0.8290889364933206  0.004173133277767198  1.0000
  H   H50       1.0  0.539561641128209  0.6709105616364891  0.5041736190550734  1.0000
  H   H51       1.0  0.03956065488157632  0.17091242308620025  0.9958275622419134  1.0000
  H   H52       1.0  0.4604289812996072  0.32908710901130417  0.4958295297722442  1.0000
  H   H53       1.0  0.6846469412112696  0.571108475697649  0.20642679040915365  1.0000
  H   H54       1.0  0.8153535840609648  0.9288934054603002  0.7064278666046204  1.0000
  H   H55       1.0  0.3153609217566782  0.42889355356478376  0.7935708384640845  1.0000
  H   H56       1.0  0.1846424861999267  0.0711049697948596  0.2935734422359317  1.0000
  H   H57       1.0  0.6656287839294351  0.6178158998003768  0.306841692379514  1.0000
  H   H58       1.0  0.834370237228967  0.8821883113075869  0.8068430749639501  1.0000
  H   H59       1.0  0.3343750927059189  0.38218391086410003  0.6931571631465089  1.0000
  H   H60       1.0  0.1656255675859768  0.1178145709948808  0.19315884721886076  1.0000
  H   H61       1.0  0.8345418590957507  0.6021081085859379  0.2749490693712317  1.0000
  H   H62       1.0  0.665455979542692  0.8978928503055741  0.7749495383156668  1.0000
  H   H63       1.0  0.16546630288517855  0.39789466895313547  0.7250516261463671  1.0000
  H   H64       1.0  0.33454145306358635  0.10211151979040521  0.22505115721367014  1.0000
  C   C1        1.0  0.131759237217949  0.6944791348738661  0.8137361595658631  1.0000
  C   C2        1.0  0.3682387357740566  0.805517904328923  0.3137405569333964  1.0000
  C   C3        1.0  0.8682337437532012  0.3055192665384965  0.18625717600680494  1.0000
  C   C4        1.0  0.6317664696386132  0.19448264587236247  0.6862589119224578  1.0000
  C   C5        1.0  0.259748442456484  0.6777323132428775  0.784501725369182  1.0000
  C   C6        1.0  0.24025087171948906  0.8222652279344586  0.2845051625584744  1.0000
  C   C7        1.0  0.7402446712361481  0.3222638346744872  0.21549835680963264  1.0000
  C   C8        1.0  0.7597469590556541  0.17773238159180238  0.7154949196217115  1.0000
  C   C9        1.0  0.3304373821048755  0.7334321965279426  0.7184966661154133  1.0000
  C   C10       1.0  0.16955946881764564  0.7665663310188576  0.21850047112712184  1.0000
  C   C11       1.0  0.6695564287707754  0.2665579390739267  0.28150034940248486  1.0000
  C   C12       1.0  0.8304437106353435  0.23343949194866548  0.7814983844175243  1.0000
  C   C13       1.0  0.2744438240682712  0.8054203424673786  0.6804815953870713  1.0000
  C   C14       1.0  0.22555201322365548  0.694577884890883  0.180482439555405  1.0000
  C   C15       1.0  0.7255535414029025  0.19457351700063438  0.31951664679670694  1.0000
  C   C16       1.0  0.7744502691883  0.305425693286594  0.8195170293114984  1.0000
  C   C17       1.0  0.1455786778254761  0.8210146032186639  0.7091922441616558  1.0000
  C   C18       1.0  0.3544114004358931  0.6789824045641453  0.2091940543465896  1.0000
  C   C19       1.0  0.8544070276640311  0.17897334867232925  0.2907980247418322  1.0000
  C   C20       1.0  0.6455885234348103  0.32102044280887987  0.7908054145196244  1.0000
  C   C21       1.0  0.07580976691018287  0.7665750220904994  0.7757125025363576  1.0000
  C   C22       1.0  0.4241869270091811  0.7334262238963091  0.27571332515135066  1.0000
  C   C23       1.0  0.9241817525606207  0.23342489330995864  0.22428083304183838  1.0000
  C   C24       1.0  0.5758141929160558  0.2665796165334413  0.7242861437231337  1.0000
  C   C25       1.0  0.05330868485656729  0.6361061553415295  0.884515977795324  1.0000
  C   C26       1.0  0.4467002864872426  0.8638906147062784  0.3845175601652711  1.0000
  C   C27       1.0  0.9466780839643006  0.3638870431335731  0.11547551778025417  1.0000
  C   C28       1.0  0.5533131570362997  0.13610986564858507  0.6154800686996891  1.0000
  C   C29       1.0  0.3535904167064814  0.8680819987781374  0.6113626831378267  1.0000
  C   C30       1.0  0.14640325766720252  0.6319179379083124  0.11136325062901159  1.0000
  C   C31       1.0  0.6464037267500944  0.1319141404068773  0.38863678571183863  1.0000
  C   C32       1.0  0.8535973969538092  0.36808415246817827  0.8886356049059783  1.0000
  C   C33       1.0  0.5080481823600635  0.5353900566370909  0.9622026289592325  1.0000
  C   C34       1.0  0.991963959937607  0.9646070463462522  0.4622072151501654  1.0000
  C   C35       1.0  0.4919572884999893  0.4646059864894666  0.037789479941331194  1.0000
  C   C36       1.0  0.008064033001154797  0.03539105828799188  0.5377953203258838  1.0000
  C   C37       1.0  0.7867972469184252  0.7412232009186824  0.1405612822881466  1.0000
  C   C38       1.0  0.7132062628743512  0.7587803723474238  0.6405602351737512  1.0000
  C   C39       1.0  0.21320460375672218  0.25878188252200834  0.8594394132405012  1.0000
  C   C40       1.0  0.28678542288521675  0.24122254487701164  0.3594423003402836  1.0000
  C   C41       1.0  0.8903233753436623  0.9219797196521283  0.16554324332754075  1.0000
  C   C42       1.0  0.609682183375  0.5780240391560484  0.6655424636482364  1.0000
  C   C43       1.0  0.10968020227792859  0.0780193427506575  0.8344562255248674  1.0000
  C   C44       1.0  0.3903128906893726  0.4219796001479422  0.3344612985227045  1.0000
  C   C45       1.0  0.8094711156250796  0.9041177357739016  0.24632534606885761  1.0000
  C   C46       1.0  0.6905298244524686  0.5958829643246658  0.7463233433462546  1.0000
  C   C47       1.0  0.19053498682848874  0.09588505921991701  0.7536741227932067  1.0000
  C   C48       1.0  0.30946036623893747  0.40411621157885946  0.25367919215742757  1.0000
  C   C49       1.0  0.8179663508210878  0.8055342705588939  0.28330261530604156  1.0000
  C   C50       1.0  0.6820382608827273  0.6944682003567023  0.7833018329241239  1.0000
  C   C51       1.0  0.1820390208815184  0.19446928144392925  0.7167005335295328  1.0000
  C   C52       1.0  0.3179522288220511  0.3055317238159887  0.21670192923854603  1.0000
  C   C53       1.0  0.8625659835017389  0.8492262746463053  0.023313398520002693  1.0000
  C   C54       1.0  0.6374340214519947  0.6507726220176905  0.5233130228689971  1.0000
  C   C55       1.0  0.1374296550228706  0.15077360586209923  0.976686683668461  1.0000
  C   C56       1.0  0.3625601220037922  0.3492235171822742  0.47669012595141413  1.0000
  C   C57       1.0  0.7382557847851884  0.623296475776911  0.2541481609157471  1.0000
  C   C58       1.0  0.7617469460540249  0.8767087774806156  0.7541477641362702  1.0000
  C   C59       1.0  0.2617513474318045  0.37670631049451936  0.7458531479310009  1.0000
  C   C60       1.0  0.2382498885245994  0.12329409609447588  0.2458547713743044  1.0000
  N   N1        1.0  0.8370200320045671  0.8362006044294078  0.11123462343613257  1.0000
  N   N2        1.0  0.6629804009420823  0.6638027567239391  0.6112342935743199  1.0000
  N   N3        1.0  0.1629791611159561  0.1638029999376727  0.8887648454328383  1.0000
  N   N4        1.0  0.3370112848174855  0.3362001605004891  0.3887682419397079  1.0000
  N   N5        1.0  0.7749157285171436  0.7250499403331075  0.22285581359400192  1.0000
  N   N6        1.0  0.7250892078522285  0.7749527876642193  0.7228554622509832  1.0000
  N   N7        1.0  0.22508964318586067  0.27495361166224097  0.7771454952561994  1.0000
  N   N8        1.0  0.27490201260297903  0.2250463795094433  0.2771470732520099  1.0000
  O   O1        1.0  0.9442088868559465  0.6597238004822116  0.9130303408219829  1.0000
  O   O2        1.0  0.555800785045399  0.8402744256421356  0.4130328983566755  1.0000
  O   O3        1.0  0.055785854629064616  0.340273835208734  0.08696360807569897  1.0000
  O   O4        1.0  0.4442139872550683  0.15972679425700417  0.5869671838234892  1.0000
  O   O5        1.0  0.09668339054643839  0.5637902360436654  0.9132820625289637  1.0000
  O   O6        1.0  0.40332972121419164  0.9362119881183657  0.41327739152060855  1.0000
  O   O7        1.0  0.9033098894356115  0.4362089136852062  0.08672415294339689  1.0000
  O   O8        1.0  0.5966793042413914  0.0637877788743495  0.586715944045835  1.0000
  O   O9        1.0  0.2967718687711454  0.9328679980404359  0.5812797681188826  1.0000
  O   O10       1.0  0.20322935929753067  0.567137636650223  0.08127803058742698  1.0000
  O   O11       1.0  0.7032283541125395  0.06713559760922999  0.41872276739168507  1.0000
  O   O12       1.0  0.7967817928209014  0.4328726235082243  0.9187171449947369  1.0000
  O   O13       1.0  0.4722393306347996  0.8534122630306908  0.5887276754587772  1.0000
  O   O14       1.0  0.027762359577003744  0.6465971822419759  0.08872848483565579  1.0000
  O   O15       1.0  0.5277588327221778  0.1465913500612643  0.4112705667539699  1.0000
  O   O16       1.0  0.9722477627783943  0.3534130866313845  0.9112630107764514  1.0000
  O   O17       1.0  0.39315293192078826  0.5429822432328137  0.9285168871648322  1.0000
  O   O18       1.0  0.10686203304148721  0.95701183021238  0.4285225379150787  1.0000
  O   O19       1.0  0.6068510774394298  0.457015313871878  0.07147276842741948  1.0000
  O   O20       1.0  0.8931576882185865  0.042981088959287206  0.5714818375360124  1.0000
  O   O21       1.0  0.6341021501069337  0.5794165842158563  0.9401320561227988  1.0000
  O   O22       1.0  0.8659156828167339  0.9205945564284407  0.440132858921629  1.0000
  O   O23       1.0  0.36590219183329253  0.42058697648942467  0.059864346100425785  1.0000
  O   O24       1.0  0.1341056006479135  0.07941261466716297  0.5598678366007801  1.0000
  O   O25       1.0  0.7486052940632251  0.6688896922083599  0.09053556591261717  1.0000
  O   O26       1.0  0.7513924901127426  0.8311120216767165  0.59053490682642  1.0000
  O   O27       1.0  0.25139668933471176  0.3311131377124141  0.9094657429375841  1.0000
  O   O28       1.0  0.2486062377029086  0.16888783264955975  0.4094670153453491  1.0000
