data_image0
_chemical_formula_structural       Zn2H28C40N6O8
_chemical_formula_sum              "Zn2 H28 C40 N6 O8"
_cell_length_a       8.482496267245104
_cell_length_b       9.020142800916004
_cell_length_c       11.37524419825116
_cell_angle_alpha    88.15577295825983
_cell_angle_beta     74.50309057603614
_cell_angle_gamma    72.24356924268245

_space_group_name_H-M_alt    "P 1"
_space_group_IT_number       1

loop_
  _space_group_symop_operation_xyz
  'x, y, z'

loop_
  _atom_site_type_symbol
  _atom_site_label
  _atom_site_symmetry_multiplicity
  _atom_site_fract_x
  _atom_site_fract_y
  _atom_site_fract_z
  _atom_site_occupancy
  Zn  Zn1       1.0  0.5384028055107279  0.08958277426999929  0.8529327794967188  1.0000
  Zn  Zn2       1.0  0.4616010754755636  0.910417695567013  0.14706569095424266  1.0000
  H   H1        1.0  0.1294910238853362  0.07566726940442693  0.8842603503735589  1.0000
  H   H2        1.0  0.8705108537513626  0.9243355775578197  0.11574196235068965  1.0000
  H   H3        1.0  0.9048777051855977  0.2375642005129777  0.7915339307990336  1.0000
  H   H4        1.0  0.0951294080868976  0.7624374657521003  0.208462942301594  1.0000
  H   H5        1.0  0.6926407750294102  0.4847733433012423  0.9009812896310475  1.0000
  H   H6        1.0  0.30736148431898874  0.5152247492470752  0.09901673010114109  1.0000
  H   H7        1.0  0.9240029295235955  0.39301272815553295  0.19924124836484938  1.0000
  H   H8        1.0  0.07599042111221614  0.606986468179045  0.8007612192792166  1.0000
  H   H9        1.0  0.3147379965349515  0.8206791041074554  0.9096186322892235  1.0000
  H   H10       1.0  0.6852688463249877  0.17931687236590932  0.09038818723859528  1.0000
  H   H11       1.0  0.40617536190185916  0.5978641502736863  0.7170660500539369  1.0000
  H   H12       1.0  0.5938273588445712  0.40213639625628156  0.2829379341814402  1.0000
  H   H13       1.0  0.7482396681341047  0.8706891029867023  0.4102160948359383  1.0000
  H   H14       1.0  0.25176096133026243  0.12931013972325903  0.5897822196588507  1.0000
  H   H15       1.0  0.9093201864111581  0.05588449581342301  0.31979929650061906  1.0000
  H   H16       1.0  0.09068167886422887  0.9441112501996614  0.6801988953011245  1.0000
  H   H17       1.0  0.9067126858765349  0.27103611706525754  0.4511051090219809  1.0000
  H   H18       1.0  0.09329323555906652  0.7289584942446369  0.548891403634066  1.0000
  H   H19       1.0  0.7376160233044758  0.2977023283142941  0.6724434882006703  1.0000
  H   H20       1.0  0.26239194132388394  0.7022935100681592  0.3275543109297203  1.0000
  H   H21       1.0  0.5769328950850153  0.561032590973774  0.5162203751161201  1.0000
  H   H22       1.0  0.42306162678024606  0.4389700868171643  0.4837790775313949  1.0000
  H   H23       1.0  0.6215750806911656  0.7155310991698016  0.4317998322897623  1.0000
  H   H24       1.0  0.37841822322707236  0.28447156321716704  0.568199874222671  1.0000
  H   H25       1.0  0.90713047094588  0.5762593937853995  0.3113474480508529  1.0000
  H   H26       1.0  0.09286243889935261  0.4237409220663366  0.6886524305311355  1.0000
  H   H27       1.0  0.7869229638569522  0.5651917548092555  0.703247862288343  1.0000
  H   H28       1.0  0.21306872804125024  0.4348085456385106  0.2967522701585636  1.0000
  C   C1        1.0  0.16814219884781784  0.13038704696081282  0.11352606863198389  1.0000
  C   C2        1.0  0.8318584690879905  0.8696122571471109  0.8864757524758102  1.0000
  C   C3        1.0  0.041255916119560324  0.22485939321381923  0.0481890139413252  1.0000
  C   C4        1.0  0.9587431026965023  0.7751410303567782  0.9518113486225629  1.0000
  C   C5        1.0  0.0359009715409897  0.18170418530351642  0.9325591923130574  1.0000
  C   C6        1.0  0.9640984509659488  0.818298600151799  0.06744187483452897  1.0000
  C   C7        1.0  0.9096161096585932  0.27400890177364096  0.8805769332703192  1.0000
  C   C8        1.0  0.0903878001812828  0.7259916141118339  0.11942416714039442  1.0000
  C   C9        1.0  0.7911954407130537  0.4117536702825291  0.9409343198704717  1.0000
  C   C10       1.0  0.20880277209299444  0.5882455723184635  0.059066255660660316  1.0000
  C   C11       1.0  0.7968027947151699  0.4568883344429722  0.05623252407443863  1.0000
  C   C12       1.0  0.2031958300278802  0.5431097425923924  0.9437680105590117  1.0000
  C   C13       1.0  0.9201822994950534  0.3614197043660923  0.10894709155999031  1.0000
  C   C14       1.0  0.07981550137397879  0.6385807038005282  0.8910535248688234  1.0000
  C   C15       1.0  0.6753275342426122  0.6049035788199718  0.12571101773009735  1.0000
  C   C16       1.0  0.32467151205529626  0.39509334799925006  0.8742903526589244  1.0000
  C   C17       1.0  0.3939438909515332  0.8151003935204103  0.8167983594835846  1.0000
  C   C18       1.0  0.6060625014999561  0.1848966871206272  0.18320499432891782  1.0000
  C   C19       1.0  0.43942184954842395  0.7041284547435039  0.7230977303720821  1.0000
  C   C20       1.0  0.5605788280052482  0.2958708647139048  0.2769049673889583  1.0000
  C   C21       1.0  0.5633889449415366  0.8869350961241409  0.6594257522280529  1.0000
  C   C22       1.0  0.4366067852528843  0.1130675817212889  0.3405725699012905  1.0000
  C   C23       1.0  0.6635413000907562  0.9833350338188824  0.5920124176607331  1.0000
  C   C24       1.0  0.3364593389914747  0.0166642242405715  0.40798677348730905  1.0000
  C   C25       1.0  0.7495041250062473  0.9644451344686759  0.46709833638341536  1.0000
  C   C26       1.0  0.2504973379499944  0.03555179245952899  0.5329007729692633  1.0000
  C   C27       1.0  0.8383917052015094  0.0679888538180222  0.41587738331575264  1.0000
  C   C28       1.0  0.16161259596792382  0.9320069230030087  0.5841203007561473  1.0000
  C   C29       1.0  0.8370629071847587  0.18959433342440243  0.4890070125842173  1.0000
  C   C30       1.0  0.16294138436681052  0.8104014280471431  0.5109897948344369  1.0000
  C   C31       1.0  0.7458774920046239  0.20277151709991162  0.6118458522929232  1.0000
  C   C32       1.0  0.25412884273971087  0.7972254714441931  0.3881522416000677  1.0000
  C   C33       1.0  0.6391257870351695  0.652156305211321  0.513515196127159  1.0000
  C   C34       1.0  0.3608654846798984  0.34784868825241944  0.48648572269880924  1.0000
  C   C35       1.0  0.9488260744959123  0.5432526906492114  0.3938118774649765  1.0000
  C   C36       1.0  0.05116517798343522  0.4567522721155441  0.6061872880544925  1.0000
  C   C37       1.0  0.826758896140106  0.5779616258174443  0.5075508714907784  1.0000
  C   C38       1.0  0.1732340246947075  0.42204224818361524  0.4924515058790888  1.0000
  C   C39       1.0  0.12062468714426444  0.464812033616063  0.3863211670773764  1.0000
  C   C40       1.0  0.8793722706150434  0.5351906749828359  0.6136777778402943  1.0000
  N   N1        1.0  0.4704868980329169  0.9272432305536142  0.7759031768948929  1.0000
  N   N2        1.0  0.5295149878499145  0.07275608895828607  0.22409839034797593  1.0000
  N   N3        1.0  0.6641833875479081  0.1014866417047315  0.6627784761892527  1.0000
  N   N4        1.0  0.33581804792648035  0.8985137819748348  0.3372196253382925  1.0000
  N   N5        1.0  0.5457468359991181  0.7505320515312235  0.6248001093536716  1.0000
  N   N6        1.0  0.4542485014940212  0.249471822578812  0.3752000069798527  1.0000
  O   O1        1.0  0.14034812556196394  0.1599921645702196  0.22497663082099706  1.0000
  O   O2        1.0  0.8596541543938797  0.8400095014769066  0.7750247643523096  1.0000
  O   O3        1.0  0.3005174049550022  0.019873606159571004  0.04952342763110102  1.0000
  O   O4        1.0  0.6994832437450923  0.9801256672493752  0.9504766401701872  1.0000
  O   O5        1.0  0.586001208707863  0.7045583558973194  0.0648530591018286  1.0000
  O   O6        1.0  0.41399904591921205  0.2954385709763941  0.9351471807690145  1.0000
  O   O7        1.0  0.6665583560989816  0.6251935901075073  0.23627555640311468  1.0000
  O   O8        1.0  0.33344068195280135  0.37480686416206765  0.7637265594672726  1.0000
