data_image0
_chemical_formula_structural       Cu2H28C26S2N6
_chemical_formula_sum              "Cu2 H28 C26 S2 N6"
_cell_length_a       5.738648650735802
_cell_length_b       8.347788679869657
_cell_length_c       14.163663411660384
_cell_angle_alpha    106.6538221489627
_cell_angle_beta     89.99806992628118
_cell_angle_gamma    90.00131966631766

_space_group_name_H-M_alt    "P 1"
_space_group_IT_number       1

loop_
  _space_group_symop_operation_xyz
  'x, y, z'

loop_
  _atom_site_type_symbol
  _atom_site_label
  _atom_site_symmetry_multiplicity
  _atom_site_fract_x
  _atom_site_fract_y
  _atom_site_fract_z
  _atom_site_occupancy
  Cu  Cu1       1.0  0.45625618498294074  0.49074352589451553  0.772300783773609  1.0000
  Cu  Cu2       1.0  0.9562292449793545  0.5092407145199545  0.22768732243618925  1.0000
  H   H1        1.0  0.6742696004710426  0.5454503260339649  0.5945387028481264  1.0000
  H   H2        1.0  0.1742328794530721  0.4545706556331552  0.4054493335057572  1.0000
  H   H3        1.0  0.5798993281082403  0.6869373962745301  0.46573245594087354  1.0000
  H   H4        1.0  0.0799019317578242  0.31306332450605356  0.5342512701402525  1.0000
  H   H5        1.0  0.9465020853928224  0.8642972825463245  0.6258082792352866  1.0000
  H   H6        1.0  0.4464299596700911  0.13572953087766138  0.3742266521320587  1.0000
  H   H7        1.0  0.06195208731670478  0.7097383442421047  0.7453454115278504  1.0000
  H   H8        1.0  0.5618511493960411  0.29032120567370623  0.2546985706585474  1.0000
  H   H9        1.0  0.32740266285591696  0.8706272097395241  0.4071950120452143  1.0000
  H   H10       1.0  0.827424546070233  0.1293466936005458  0.5927965458178974  1.0000
  H   H11       1.0  0.0285414123067156  0.8287471683266432  0.4225736462504059  1.0000
  H   H12       1.0  0.528554480792735  0.17117344809231128  0.5774226842292833  1.0000
  H   H13       1.0  0.15778905849558814  0.0129170462571011  0.49968823609200536  1.0000
  H   H14       1.0  0.6578555105945084  0.9870426206323017  0.5002882859861799  1.0000
  H   H15       1.0  0.0575623316637959  0.5086865824979938  0.9170244624197962  1.0000
  H   H16       1.0  0.557529795290506  0.49129034663233995  0.082966846217964  1.0000
  H   H17       1.0  0.9370441773471542  0.6983888209813428  0.07970777725513048  1.0000
  H   H18       1.0  0.43705590863183363  0.30157286340136125  0.9202774881201348  1.0000
  H   H19       1.0  0.5671329601814818  0.9795680724961785  0.07856233246874925  1.0000
  H   H20       1.0  0.06719714617855742  0.020438877137948498  0.921427547747818  1.0000
  H   H21       1.0  0.6634362824060033  0.7784719793165351  0.9165733979148526  1.0000
  H   H22       1.0  0.163442639976914  0.2215639842662824  0.08342012206221482  1.0000
  H   H23       1.0  0.2089750282296023  0.9106361206689897  0.24900505962175154  1.0000
  H   H24       1.0  0.7090368466898552  0.0893399399176502  0.7509749725111945  1.0000
  H   H25       1.0  0.271572612124551  0.08969355567826649  0.2092808360666183  1.0000
  H   H26       1.0  0.7716150734573118  0.9102939628701703  0.7907179676397147  1.0000
  H   H27       1.0  0.9862184182953087  0.0010012960616024003  0.19515556189829644  1.0000
  H   H28       1.0  0.48626720036154575  0.9989955230203195  0.8048321554747843  1.0000
  C   C1        1.0  0.9576473896029043  0.3560179000473696  0.7455194860725028  1.0000
  C   C2        1.0  0.4576366077018932  0.6439776529418993  0.2544959221982452  1.0000
  C   C3        1.0  0.5139651428757901  0.6172471019824358  0.5983894900969062  1.0000
  C   C4        1.0  0.013920043236275602  0.38278346345055064  0.4016050485234643  1.0000
  C   C5        1.0  0.46073467315062544  0.6971410309562032  0.5273190513631079  1.0000
  C   C6        1.0  0.9607249951171467  0.30286323961616546  0.4726780146113683  1.0000
  C   C7        1.0  0.2543622115525395  0.7898512058713718  0.5351603770324118  1.0000
  C   C8        1.0  0.7543295481212976  0.2101600316435395  0.4648461689633834  1.0000
  C   C9        1.0  0.1095407287360857  0.7946703185155499  0.6156879665394399  1.0000
  C   C10       1.0  0.6094870168450015  0.2053580799865671  0.3843416895670018  1.0000
  C   C11       1.0  0.1735664776819803  0.7102447713399512  0.6830003623997526  1.0000
  C   C12       1.0  0.6734774696495692  0.2898050440234456  0.31702783518383626  1.0000
  C   C13       1.0  0.18949172186967903  0.8803033982178332  0.46193344917284657  1.0000
  C   C14       1.0  0.6895196811993286  0.11965888896082079  0.538059344092261  1.0000
  C   C15       1.0  0.16559042750151323  0.6151870084613976  0.9549990267323449  1.0000
  C   C16       1.0  0.6655821871513014  0.38479272196411074  0.04499771501419761  1.0000
  C   C17       1.0  0.09860495608209871  0.7218136625213843  0.0454430607192577  1.0000
  C   C18       1.0  0.5986023216086026  0.2781708947364834  0.9545567682861246  1.0000
  C   C19       1.0  0.24010811930516243  0.8577971032920573  0.09318844790217178  1.0000
  C   C20       1.0  0.7401553453008917  0.14220405961262367  0.9068010538854521  1.0000
  C   C21       1.0  0.44721520581816776  0.877617775066149  0.045381857403377523  1.0000
  C   C22       1.0  0.9472468173769713  0.12238895734205359  0.9546143845885949  1.0000
  C   C23       1.0  0.5023841928585143  0.7658446582024326  0.954677973505575  1.0000
  C   C24       1.0  0.0023875373602209  0.2341646233719601  0.04531454589855599  1.0000
  C   C25       1.0  0.17324415384715758  0.9723261600096011  0.19156581103879944  1.0000
  C   C26       1.0  0.673297933553485  0.0276710759226759  0.8084245978991972  1.0000
  S   S1        1.0  0.2085859683698743  0.25920999833795827  0.7328753261382558  1.0000
  S   S2        1.0  0.7085668188307465  0.7408036261853396  0.2671357414131705  1.0000
  N   N1        1.0  0.7730180257500052  0.4225955902761313  0.7547818500448784  1.0000
  N   N2        1.0  0.2730117920324346  0.5773944512942039  0.24522583214296387  1.0000
  N   N3        1.0  0.37377731145285503  0.6226190661116675  0.6756599220348035  1.0000
  N   N4        1.0  0.8737215411836844  0.3774087461139146  0.32434928526177487  1.0000
  N   N5        1.0  0.36457011937811507  0.6357495380517475  0.908644619964221  1.0000
  N   N6        1.0  0.8645411285273852  0.3642469905444656  0.0913594435065974  1.0000
