data_image0
_chemical_formula_structural       Cd2H36C42N4O8
_chemical_formula_sum              "Cd2 H36 C42 N4 O8"
_cell_length_a       6.906573023268028
_cell_length_b       11.865636777796656
_cell_length_c       13.209357593185358
_cell_angle_alpha    91.77385756951816
_cell_angle_beta     90.0008958286167
_cell_angle_gamma    90.00045824225775

_space_group_name_H-M_alt    "P 1"
_space_group_IT_number       1

loop_
  _space_group_symop_operation_xyz
  'x, y, z'

loop_
  _atom_site_type_symbol
  _atom_site_label
  _atom_site_symmetry_multiplicity
  _atom_site_fract_x
  _atom_site_fract_y
  _atom_site_fract_z
  _atom_site_occupancy
  Cd  Cd1       1.0  0.74965619178208  0.18842394833594514  0.3474245474913857  1.0000
  Cd  Cd2       1.0  0.24967046417197036  0.8115796828065384  0.6525754508087329  1.0000
  H   H1        1.0  0.7328416019922346  0.37118362784580944  0.5391767169710207  1.0000
  H   H2        1.0  0.23284898014753  0.6288140389413001  0.4608260359831888  1.0000
  H   H3        1.0  0.7607715052535656  0.3762776550164375  0.7287988860208969  1.0000
  H   H4        1.0  0.26077311602647063  0.6237201413776032  0.27120334080290576  1.0000
  H   H5        1.0  0.7903925994536963  0.19308073195225003  0.8174066953142898  1.0000
  H   H6        1.0  0.2903970336183335  0.8069172161701914  0.1825972908761102  1.0000
  H   H7        1.0  0.7974902815393322  0.0135446823407648  0.7154151681353013  1.0000
  H   H8        1.0  0.29749452465907217  0.9864532859343241  0.2845866052989052  1.0000
  H   H9        1.0  0.7316592658618007  0.8788280650082073  0.6291788730031909  1.0000
  H   H10       1.0  0.23165676667493784  0.12117126376598007  0.3708208800287736  1.0000
  H   H11       1.0  0.738006844699932  0.708595703309015  0.516611933710699  1.0000
  H   H12       1.0  0.23800434060449766  0.29140699602906034  0.483382648787689  1.0000
  H   H13       1.0  0.7785452625842313  0.7330389165872332  0.3271659885434984  1.0000
  H   H14       1.0  0.2785365199885064  0.2669656592960478  0.6728282106542235  1.0000
  H   H15       1.0  0.7964083932844518  0.9298225355930966  0.2636606839820033  1.0000
  H   H16       1.0  0.29640456889399763  0.07018723637155937  0.7363421073190891  1.0000
  H   H17       1.0  0.2454545020813584  0.5913359489443764  0.005631183736980501  1.0000
  H   H18       1.0  0.7454453986927734  0.4086693436068457  0.9943680610784893  1.0000
  H   H19       1.0  0.16496312633952936  0.7914443049083031  0.9762160157527119  1.0000
  H   H20       1.0  0.6649466573806041  0.2085614810646347  0.023788639686365798  1.0000
  H   H21       1.0  0.8658502806609861  0.8762593524577724  0.052324613632009694  1.0000
  H   H22       1.0  0.3658260509056107  0.12374996137376831  0.9476870615070396  1.0000
  H   H23       1.0  0.6471231187170191  0.7578837316594756  0.15510888539745335  1.0000
  H   H24       1.0  0.14709313091838544  0.2421177899610996  0.844901583341233  1.0000
  H   H25       1.0  0.7304775239728516  0.5573848468308995  0.18472135282831909  1.0000
  H   H26       1.0  0.23045092802158965  0.44261619512288763  0.8152837289547603  1.0000
  H   H27       1.0  0.05932945659839821  0.39552016554644354  0.03781526060900119  1.0000
  H   H28       1.0  0.5593221537656563  0.6044833797085687  0.9621809109142985  1.0000
  H   H29       1.0  0.9173514785437223  0.3987421071464609  0.1495830824860676  1.0000
  H   H30       1.0  0.4173542419265744  0.601260606614808  0.8504122072440125  1.0000
  H   H31       1.0  0.2134355566146411  0.4575531105625005  0.24997789025693604  1.0000
  H   H32       1.0  0.7134282441693929  0.5424376989769826  0.7500215193612759  1.0000
  H   H33       1.0  0.3535553946828004  0.4499723885347677  0.1368237852353573  1.0000
  H   H34       1.0  0.8535472443707949  0.5500191086215266  0.8631790549935728  1.0000
  H   H35       1.0  0.2567284715602512  0.24414531049102808  0.11589875364980169  1.0000
  H   H36       1.0  0.7567586078936942  0.7558482041620636  0.8840957719567085  1.0000
  C   C1        1.0  0.7464084729296446  0.293796379212111  0.5812267873424019  1.0000
  C   C2        1.0  0.24642002541247626  0.706203029818468  0.4187746020747339  1.0000
  C   C3        1.0  0.7621646270732754  0.29629029287441705  0.6863881978125406  1.0000
  C   C4        1.0  0.26216864203985324  0.7037100257358444  0.3136118268661505  1.0000
  C   C5        1.0  0.7792541558096959  0.1942306143488182  0.7351619580356042  1.0000
  C   C6        1.0  0.27924801289330503  0.8057689525501387  0.26483970302465554  1.0000
  C   C7        1.0  0.7801198775485576  0.09361489189218729  0.6780920832083196  1.0000
  C   C8        1.0  0.2801270059236529  0.9063838360397938  0.3219095658047308  1.0000
  C   C9        1.0  0.7621673051714738  0.09782777016985018  0.5724464580061691  1.0000
  C   C10       1.0  0.26216885976801774  0.9021725624175049  0.4275558381555696  1.0000
  C   C11       1.0  0.7617875127514325  0.9937271030963898  0.5070232374068198  1.0000
  C   C12       1.0  0.26178416301887353  0.006274052187379198  0.4929760462284988  1.0000
  C   C13       1.0  0.7469348562670748  0.8869449873984934  0.5480427618036501  1.0000
  C   C14       1.0  0.24692743980608614  0.11305271451165308  0.4519548075768184  1.0000
  C   C15       1.0  0.7512624302723554  0.7915144303001043  0.4840545815649548  1.0000
  C   C16       1.0  0.2512611801561704  0.20848918058703692  0.5159408870164411  1.0000
  C   C17       1.0  0.7711709839836659  0.8049837385541493  0.38014756475571687  1.0000
  C   C18       1.0  0.27116687279978186  0.19501575223483056  0.6198479721886158  1.0000
  C   C19       1.0  0.7818089084979649  0.9141081436641085  0.3442530199017639  1.0000
  C   C20       1.0  0.2818043333554315  0.0858947941947505  0.6557464678833255  1.0000
  C   C21       1.0  0.1158135582774307  0.6284936601037926  0.039775445066659594  1.0000
  C   C22       1.0  0.6158058000774533  0.3715127187864483  0.9602265516107593  1.0000
  C   C23       1.0  0.07086996850866001  0.7411717336207316  0.023543736089969493  1.0000
  C   C24       1.0  0.5708567617819469  0.2588377971700382  0.976457208666673  1.0000
  C   C25       1.0  0.9024975595762542  0.7885843106206919  0.06569355428829478  1.0000
  C   C26       1.0  0.4024828545360678  0.21141839222324413  0.9343114555316203  1.0000
  C   C27       1.0  0.7804721719113915  0.7221711135149318  0.12344974240853186  1.0000
  C   C28       1.0  0.28045087912430944  0.2778326982918315  0.8765558107692327  1.0000
  C   C29       1.0  0.8266435799650866  0.6094116472032169  0.1398802152230516  1.0000
  C   C30       1.0  0.3266146998808068  0.3905940868538806  0.8601280298755539  1.0000
  C   C31       1.0  0.9947129357668276  0.5608628328649131  0.0979220056535866  1.0000
  C   C32       1.0  0.4946888977023179  0.43914197633525015  0.9020800197230513  1.0000
  C   C33       1.0  0.04140737560240379  0.4384778363184551  0.11246221520488578  1.0000
  C   C34       1.0  0.5414001194287581  0.5615231026038927  0.8875352645806273  1.0000
  C   C35       1.0  0.22469586983841344  0.4165498540572798  0.17455037601604315  1.0000
  C   C36       1.0  0.7246928502395991  0.5834426866368075  0.8254476509845502  1.0000
  C   C37       1.0  0.24966561081851077  0.2901214989594719  0.18910288688282859  1.0000
  C   C38       1.0  0.7496813155207036  0.7098728202073447  0.8108908423431628  1.0000
  C   C39       1.0  0.43098919771150435  0.2586579822875734  0.2481955614299025  1.0000
  C   C40       1.0  0.9310050200170324  0.7413296062029953  0.751797222952966  1.0000
  C   C41       1.0  0.07448953372659162  0.24386520728904051  0.24588098906615127  1.0000
  C   C42       1.0  0.5745070826093654  0.7561308224614791  0.7541151345976898  1.0000
  N   N1        1.0  0.7462230758248652  0.1971736282032097  0.5258545975543213  1.0000
  N   N2        1.0  0.24622173006765993  0.8028257845617474  0.4741475474327855  1.0000
  N   N3        1.0  0.775932199164629  0.0057674597403618985  0.4060215765434875  1.0000
  N   N4        1.0  0.2759328138833013  0.9942329203948288  0.5939778048565215  1.0000
  O   O1        1.0  0.5220197380243904  0.3326312256776588  0.30087488250676836  1.0000
  O   O2        1.0  0.022033370442208912  0.6673519230187352  0.6991235467549544  1.0000
  O   O3        1.0  0.4817704517283021  0.1544769950950311  0.24359964621699248  1.0000
  O   O4        1.0  0.981777749009922  0.8455124819256238  0.7563867823335427  1.0000
  O   O5        1.0  0.9924472951839863  0.1539374382632204  0.21406669965112707  1.0000
  O   O6        1.0  0.492474747709089  0.846060591596938  0.785931367300442  1.0000
  O   O7        1.0  0.017677124365235403  0.3003960139100812  0.3248169500899607  1.0000
  O   O8        1.0  0.5176799203672218  0.6996014522756722  0.675182527844207  1.0000
