data_image0
_chemical_formula_structural       Cd2H44C40N8O12
_chemical_formula_sum              "Cd2 H44 C40 N8 O12"
_cell_length_a       8.986666387866583
_cell_length_b       9.236136524721205
_cell_length_c       15.603
_cell_angle_alpha    93.3516486333033
_cell_angle_beta     93.44480125200292
_cell_angle_gamma    112.21340545018562

_space_group_name_H-M_alt    "P 1"
_space_group_IT_number       1

loop_
  _space_group_symop_operation_xyz
  'x, y, z'

loop_
  _atom_site_type_symbol
  _atom_site_label
  _atom_site_symmetry_multiplicity
  _atom_site_fract_x
  _atom_site_fract_y
  _atom_site_fract_z
  _atom_site_occupancy
  Cd  Cd1       1.0  0.02053494871444877  0.976126661638652  0.7515790766532149  1.0000
  Cd  Cd2       1.0  0.9794679067383  0.0238647221951851  0.2484221339680914  1.0000
  H   H1        1.0  0.6274328122157158  0.6744381584848611  0.8876123558693791  1.0000
  H   H2        1.0  0.3197444433783829  0.3683904427807363  0.6102903136552627  1.0000
  H   H3        1.0  0.3725524494599597  0.3255708359571727  0.1123818054081127  1.0000
  H   H4        1.0  0.68025680634679  0.631613855499104  0.3897144928445968  1.0000
  H   H5        1.0  0.5676098539563127  0.7875041333462249  0.023920131127191296  1.0000
  H   H6        1.0  0.20344377698159374  0.4251576513005091  0.4736135889152848  1.0000
  H   H7        1.0  0.4323837540884767  0.2125119053390847  0.9760745627810935  1.0000
  H   H8        1.0  0.7965583160416116  0.5748431248576935  0.5263917657795433  1.0000
  H   H9        1.0  0.5800360802705241  0.21565715996401735  0.7642433654781158  1.0000
  H   H10       1.0  0.7941924813339936  0.4306862082354782  0.7377658924355828  1.0000
  H   H11       1.0  0.41996636509703916  0.7843530085185647  0.23575527652914732  1.0000
  H   H12       1.0  0.20580776335616946  0.5693098717605379  0.2622385948681654  1.0000
  H   H13       1.0  0.5614354011648572  0.1645793519341225  0.8722011262188758  1.0000
  H   H14       1.0  0.8485492064751126  0.45145968167089007  0.6301980452111735  1.0000
  H   H15       1.0  0.4385673965470716  0.8354402088728319  0.1277991348319034  1.0000
  H   H16       1.0  0.15144696033419788  0.5485317021629399  0.3698048566399947  1.0000
  H   H17       1.0  0.7714222668289921  0.8505313260616347  0.5667034623497217  1.0000
  H   H18       1.0  0.1492354198805117  0.23601150092420647  0.9287813893189139  1.0000
  H   H19       1.0  0.2285598180046975  0.1494412731234434  0.4332912521430785  1.0000
  H   H20       1.0  0.8507852430843599  0.7639939713961823  0.0712170797291805  1.0000
  H   H21       1.0  0.9132252194732189  0.3121104610878972  0.4910227511456142  1.0000
  H   H22       1.0  0.6813948489795221  0.08423858327478227  0.014472057064800493  1.0000
  H   H23       1.0  0.08676706006261982  0.687873878502657  0.5089848996120878  1.0000
  H   H24       1.0  0.31862271226908223  0.9157844996538174  0.9855230686855946  1.0000
  H   H25       1.0  0.08235732929217215  0.3160329305548187  0.6494579998014771  1.0000
  H   H26       1.0  0.6737242118722476  0.9127801298945073  0.8581376787138097  1.0000
  H   H27       1.0  0.9176320160071253  0.6839326243869832  0.3505456948077068  1.0000
  H   H28       1.0  0.3262865798644227  0.0872370828313578  0.14185957321708287  1.0000
  H   H29       1.0  0.7335713664176706  0.0734092332709295  0.3795131827982061  1.0000
  H   H30       1.0  0.926328451480053  0.2709509475975267  0.1196428973398298  1.0000
  H   H31       1.0  0.26642153693839526  0.9265880207656421  0.6204885274612977  1.0000
  H   H32       1.0  0.07368041105508635  0.7290556987634105  0.8803539221506043  1.0000
  H   H33       1.0  0.6561380743366385  0.8855001237486277  0.4202906707582059  1.0000
  H   H34       1.0  0.11801322067280749  0.346707087921544  0.0776799421236376  1.0000
  H   H35       1.0  0.34384786890009866  0.11449360816629908  0.5797049086155113  1.0000
  H   H36       1.0  0.882001949291009  0.6533042546015793  0.922321744490425  1.0000
  H   H37       1.0  0.4456962554571717  0.9957519234192703  0.40375534378503625  1.0000
  H   H38       1.0  0.0008606035726330777  0.5488052536103538  0.0963749996300436  1.0000
  H   H39       1.0  0.5542973814580279  0.0042500267794807  0.5962478361883968  1.0000
  H   H40       1.0  0.999153913700539  0.4512072629533249  0.903626705026646  1.0000
  H   H41       1.0  0.5647585612934448  0.16715402285329617  0.4699492975133097  1.0000
  H   H42       1.0  0.8270024455579659  0.4337081886029921  0.028341331086643606  1.0000
  H   H43       1.0  0.43523945384890067  0.83284205714272  0.5300544717289455  1.0000
  H   H44       1.0  0.17301430126301648  0.5663043279606796  0.9716591689243614  1.0000
  C   C1        1.0  0.572460382613535  0.5996165544361105  0.9378586987467159  1.0000
  C   C2        1.0  0.39720431659367256  0.4251506070572333  0.5609925036228915  1.0000
  C   C3        1.0  0.4275309150149483  0.4003936140464646  0.0621376347578746  1.0000
  C   C4        1.0  0.6027939700245424  0.5748489950604281  0.4390165241254564  1.0000
  C   C5        1.0  0.5367300790164506  0.6614227449828292  0.014063946680508402  1.0000
  C   C6        1.0  0.3334574958670302  0.4590862490630201  0.4845278833513476  1.0000
  C   C7        1.0  0.4632619810415832  0.3385780311753734  0.9859346517744642  1.0000
  C   C8        1.0  0.6665314104766578  0.5409121790140929  0.5154743701145179  1.0000
  C   C9        1.0  0.537185780977694  0.4387272119406376  0.9233163156975621  1.0000
  C   C10       1.0  0.5632404565125242  0.4647967822827467  0.5769961274269022  1.0000
  C   C11       1.0  0.46281163347207144  0.5612900007852204  0.076675346059595  1.0000
  C   C12       1.0  0.43676256067720226  0.5352063419565525  0.4230086996098876  1.0000
  C   C13       1.0  0.5236910371711119  0.2278988807456912  0.8233842386378639  1.0000
  C   C14       1.0  0.7803882272030123  0.48477308218686227  0.6784748490037629  1.0000
  C   C15       1.0  0.4763067584934291  0.7721136358179805  0.1766124010088248  1.0000
  C   C16       1.0  0.21960886377281236  0.5152206497280574  0.3215262433845893  1.0000
  C   C17       1.0  0.3410762776319132  0.1513420447687466  0.8014033543644318  1.0000
  C   C18       1.0  0.8536550920697223  0.6626954049355831  0.7006217046544522  1.0000
  C   C19       1.0  0.6589270110336827  0.8486646015921977  0.1985932722282442  1.0000
  C   C20       1.0  0.1463502644067276  0.3372995010198849  0.2993803553153143  1.0000
  C   C21       1.0  0.8361318892163963  0.9766631981685449  0.5684935527835151  1.0000
  C   C22       1.0  0.0209082559264218  0.1689467827682876  0.929936429766677  1.0000
  C   C23       1.0  0.16385092917642652  0.0233140971787265  0.4314981451064739  1.0000
  C   C24       1.0  0.9791006066087178  0.8310598635926496  0.0700648760404903  1.0000
  C   C25       1.0  0.911039771398947  0.2198250039052212  0.5313609877737306  1.0000
  C   C26       1.0  0.7741873268643786  0.0887727278665977  0.9722413659753713  1.0000
  C   C27       1.0  0.08894723461362727  0.7801487693204123  0.468642910292914  1.0000
  C   C28       1.0  0.22582392695554881  0.9112456588998157  0.0277559425776914  1.0000
  C   C29       1.0  0.9936639020661602  0.2193870867812535  0.6084800670389541  1.0000
  C   C30       1.0  0.7731930692412519  0.0043486461854129995  0.8963819619969087  1.0000
  C   C31       1.0  0.006328487208570293  0.7805890345254625  0.3915234576878461  1.0000
  C   C32       1.0  0.22682060473388077  0.9956673924998967  0.10361598995284992  1.0000
  C   C33       1.0  0.6851166531564273  0.0112332199519614  0.43580565922136566  1.0000
  C   C34       1.0  0.9884941858605244  0.3177822509695787  0.06281256531666908  1.0000
  C   C35       1.0  0.314871710235522  0.9887581638818687  0.5641937680610027  1.0000
  C   C36       1.0  0.011520331412647475  0.6822302655941002  0.937187216632843  1.0000
  C   C37       1.0  0.5352928501959295  0.0398164111048089  0.4601056254583398  1.0000
  C   C38       1.0  0.9579133466282385  0.4634783347486717  0.039166474492184  1.0000
  C   C39       1.0  0.4646978236123189  0.9601808429317629  0.5398960076420636  1.0000
  C   C40       1.0  0.04210117064493349  0.5365341818150071  0.9608339483597206  1.0000
  N   N1        1.0  0.9460240780392154  0.0668216917627262  0.6306362540295751  1.0000
  N   N2        1.0  0.9279282686708327  0.05528909147133019  0.8709548608182374  1.0000
  N   N3        1.0  0.053965076652694684  0.9331462112601654  0.3693643107324506  1.0000
  N   N4        1.0  0.07208709190037148  0.9447199029707036  0.1290429057166875  1.0000
  N   N5        1.0  0.8124115447723738  0.0652379110650685  0.5069079043012579  1.0000
  N   N6        1.0  0.9319782733940086  0.1922256587306066  0.9925840391894241  1.0000
  N   N7        1.0  0.18758000120432425  0.9347417323632925  0.4930963540353517  1.0000
  N   N8        1.0  0.06804450937978143  0.8077880318736133  0.007410301317605694  1.0000
  O   O1        1.0  0.26374030240165064  0.23136582248044846  0.7745425815817414  1.0000
  O   O2        1.0  0.7680264114663939  0.7336955070044409  0.728415772816625  1.0000
  O   O3        1.0  0.7362568694426627  0.7686337796372129  0.2254497441249015  1.0000
  O   O4        1.0  0.2319771775454953  0.2663005729915824  0.2715881893233814  1.0000
  O   O5        1.0  0.27783374041339204  0.0034293724372603  0.809164695054811  1.0000
  O   O6        1.0  0.004922461767335942  0.7290533506823138  0.6923805033123358  1.0000
  O   O7        1.0  0.7221692767763341  0.9965737518020389  0.1908356456652456  1.0000
  O   O8        1.0  0.995078816828254  0.27093685911096793  0.30762125300963555  1.0000
  O   O9        1.0  0.5835191312815624  0.391987483731242  0.8477988231417796  1.0000
  O   O10       1.0  0.6119838001041344  0.4213478897260856  0.6529705492024718  1.0000
  O   O11       1.0  0.4164679787271622  0.6080262068729779  0.1521968464291845  1.0000
  O   O12       1.0  0.388015791895377  0.5786493643104791  0.34703395614389626  1.0000
