data_image0
_chemical_formula_structural       Cd2H32C32N4Cl4O8
_chemical_formula_sum              "Cd2 H32 C32 N4 Cl4 O8"
_cell_length_a       7.0257696832972565
_cell_length_b       10.242497488877634
_cell_length_c       13.996446452817016
_cell_angle_alpha    95.53022659454675
_cell_angle_beta     104.53422013403059
_cell_angle_gamma    110.08883541642574

_space_group_name_H-M_alt    "P 1"
_space_group_IT_number       1

loop_
  _space_group_symop_operation_xyz
  'x, y, z'

loop_
  _atom_site_type_symbol
  _atom_site_label
  _atom_site_symmetry_multiplicity
  _atom_site_fract_x
  _atom_site_fract_y
  _atom_site_fract_z
  _atom_site_occupancy
  Cd  Cd1       1.0  0.5735039243267153  0.7500427477453259  0.7499286612715822  1.0000
  Cd  Cd2       1.0  0.4264987179382517  0.24996103944753403  0.25007146313755163  1.0000
  H   H1        1.0  0.07930902220540759  0.7010240879772311  0.621233452345642  1.0000
  H   H2        1.0  0.2566515384859044  0.7991563244242457  0.8787156882085299  1.0000
  H   H3        1.0  0.9206904757679124  0.29897970536517704  0.3787679392730112  1.0000
  H   H4        1.0  0.7433441526810256  0.20084002727577402  0.12128214983555811  1.0000
  H   H5        1.0  0.7557266423422319  0.4468892114829401  0.4563575321942608  1.0000
  H   H6        1.0  0.35271289880401474  0.0531391987715466  0.043746380335171885  1.0000
  H   H7        1.0  0.2442755368594761  0.55311352319886  0.5436440584259401  1.0000
  H   H8        1.0  0.6472824714689339  0.9468561090882448  0.956254538635463  1.0000
  H   H9        1.0  0.8948241682912366  0.4421589009686072  0.5798052234837954  1.0000
  H   H10       1.0  0.37290672135641506  0.057952312632998805  0.9202811109438684  1.0000
  H   H11       1.0  0.10517850721564768  0.5578459521044009  0.4201959487578648  1.0000
  H   H12       1.0  0.6270867575334833  0.9420419347705503  0.07971984346305314  1.0000
  H   H13       1.0  0.2553370947771541  0.8582510928303008  0.5550362984688135  1.0000
  H   H14       1.0  0.3412782340564747  0.6417691597835501  0.9446097143355204  1.0000
  H   H15       1.0  0.7446662284057907  0.14175163245501216  0.4449634934951874  1.0000
  H   H16       1.0  0.6587247109502741  0.35822613505150974  0.05538848627536913  1.0000
  H   H17       1.0  0.2821859728757232  0.011047876857055902  0.4232126979102731  1.0000
  H   H18       1.0  0.34772648926624317  0.4890185209621478  0.07642680230923563  1.0000
  H   H19       1.0  0.7178173503072216  0.9889548484282642  0.576787094053728  1.0000
  H   H20       1.0  0.6522727062163298  0.5109757188405483  0.9235725170067468  1.0000
  H   H21       1.0  0.9535676560532804  0.9727014250258605  0.28432612573124066  1.0000
  H   H22       1.0  0.1970398106996569  0.5272016249391102  0.21556933404551162  1.0000
  H   H23       1.0  0.046433884673973726  0.02729918259389311  0.7156742685520072  1.0000
  H   H24       1.0  0.8029595269521861  0.47279262353443124  0.7844315999859646  1.0000
  H   H25       1.0  0.6111003592396924  0.7775088995637276  0.2772309041679364  1.0000
  H   H26       1.0  0.0567125848368377  0.7221848225010206  0.22290377262489616  1.0000
  H   H27       1.0  0.3889036356596164  0.22249701866378052  0.722771131965537  1.0000
  H   H28       1.0  0.9432921426256015  0.27781258999959146  0.7770938256667534  1.0000
  H   H29       1.0  0.6103774243631148  0.6262898359477376  0.4070532800633658  1.0000
  H   H30       1.0  0.07703544066011851  0.8735150584392956  0.09310776893474335  1.0000
  H   H31       1.0  0.3896208207016086  0.3737150240004681  0.5929493433285202  1.0000
  H   H32       1.0  0.9229584015672998  0.12647704383487482  0.9068885757635387  1.0000
  C   C1        1.0  0.7570576528103317  0.6489083397939835  0.6124894052302352  1.0000
  C   C2        1.0  0.9953193128066858  0.8510113408031261  0.8875080342600654  1.0000
  C   C3        1.0  0.24294288021687302  0.35109650136124065  0.387509620849258  1.0000
  C   C4        1.0  0.004677882365477592  0.1489828957526242  0.1124907536092437  1.0000
  C   C5        1.0  0.92671091796133  0.6483568005339394  0.5607077865643505  1.0000
  C   C6        1.0  0.2173397448030627  0.8516972006765898  0.9393193356637966  1.0000
  C   C7        1.0  0.07329054708048224  0.3516459301752732  0.4392930886684567  1.0000
  C   C8        1.0  0.7826560552912338  0.1482980938141267  0.06067906926325152  1.0000
  C   C9        1.0  0.9061739448484828  0.49973336253027156  0.5179555032927681  1.0000
  C   C10       1.0  0.38850821610287045  0.0003110045749324006  0.9820986463924442  1.0000
  C   C11       1.0  0.0938254441974778  0.5002714880214469  0.48204532144291795  1.0000
  C   C12       1.0  0.6114890123112031  0.9996842978609664  0.017901189309384353  1.0000
  C   C13       1.0  0.12076089139468854  0.8430866730247076  0.48967638677746816  1.0000
  C   C14       1.0  0.2875914743103393  0.6569207789278194  0.01009075752124031  1.0000
  C   C15       1.0  0.8792423561028074  0.15691817535006441  0.5103238861360921  1.0000
  C   C16       1.0  0.7124099301357419  0.34307560455295055  0.9899128036219552  1.0000
  C   C17       1.0  0.13191968758705738  0.9272285758561055  0.41799873990615316  1.0000
  C   C18       1.0  0.2865301532409886  0.5727893634273897  0.08176338684575772  1.0000
  C   C19       1.0  0.8680809211255889  0.07277414220966702  0.5819998052237806  1.0000
  C   C20       1.0  0.7134708911810961  0.42720912580115566  0.9182374258160237  1.0000
  C   C21       1.0  0.9478091783807657  0.9059886338670751  0.3406350023554269  1.0000
  C   C22       1.0  0.2013067434101572  0.5939098782780406  0.15926109394887794  1.0000
  C   C23       1.0  0.052190253108726374  0.09401302771505021  0.6593642935981804  1.0000
  C   C24       1.0  0.798696092669232  0.4060864737663223  0.8407365397790515  1.0000
  C   C25       1.0  0.7577232122915943  0.7976924417065305  0.33636053209848177  1.0000
  C   C26       1.0  0.12374158465110709  0.7020913234862648  0.16364987444165996  1.0000
  C   C27       1.0  0.2422776050741575  0.20231241679037026  0.6636417234119847  1.0000
  C   C28       1.0  0.8762569631553986  0.29790504410412677  0.8363508251519818  1.0000
  C   C29       1.0  0.7539410221888759  0.7140727296473274  0.408456055817588  1.0000
  C   C30       1.0  0.13132698607957152  0.785762967007912  0.09160542401112083  1.0000
  C   C31       1.0  0.24605722287584808  0.2859321303008784  0.591546567574298  1.0000
  C   C32       1.0  0.8686756745886296  0.21423231048546398  0.9083895471687954  1.0000
  N   N1        1.0  0.9335759726059082  0.739106470296328  0.4840771732438186  1.0000
  N   N2        1.0  0.21011082378632304  0.7608665439175939  0.015877930302707517  1.0000
  N   N3        1.0  0.06642473583247724  0.2608994454098905  0.5159245153836878  1.0000
  N   N4        1.0  0.7898940882889178  0.23912768828425615  0.9841197539223431  1.0000
  Cl  Cl1       1.0  0.44495172062109134  0.9471529589616099  0.7354482341441512  1.0000
  Cl  Cl2       1.0  0.2623727602492353  0.5527147942657963  0.7644266614150936  1.0000
  Cl  Cl3       1.0  0.5550463490324375  0.052850826435616206  0.2645517266997288  1.0000
  Cl  Cl4       1.0  0.7376299152576421  0.4472900588072194  0.23557451082656666  1.0000
  O   O1        1.0  0.7188911359970548  0.7624303075083249  0.6205410784109661  1.0000
  O   O2        1.0  0.8354158770062129  0.7375616072778826  0.879599642315455  1.0000
  O   O3        1.0  0.2811016893286861  0.23757028315106507  0.37945647469816635  1.0000
  O   O4        1.0  0.16457955975056388  0.2624358323421987  0.12040337232023292  1.0000
  O   O5        1.0  0.6791863352674882  0.5434047459851358  0.6491362046064922  1.0000
  O   O6        1.0  0.9863847140925941  0.9563980116887552  0.8507026037305039  1.0000
  O   O7        1.0  0.32081562607950087  0.4566001031152852  0.35086425224777434  1.0000
  O   O8        1.0  0.013610423486952126  0.0435898350100175  0.14929098041245942  1.0000
