data_image0
_chemical_formula_structural       Zn2H26C42N14O16
_chemical_formula_sum              "Zn2 H26 C42 N14 O16"
_cell_length_a       17.12878837889148
_cell_length_b       16.601401325645085
_cell_length_c       17.883608305738687
_cell_angle_alpha    90.08590018283957
_cell_angle_beta     88.79166170821775
_cell_angle_gamma    88.58527977575145

_space_group_name_H-M_alt    "P 1"
_space_group_IT_number       1

loop_
  _space_group_symop_operation_xyz
  'x, y, z'

loop_
  _atom_site_type_symbol
  _atom_site_label
  _atom_site_symmetry_multiplicity
  _atom_site_fract_x
  _atom_site_fract_y
  _atom_site_fract_z
  _atom_site_occupancy
  Zn  Zn1       1.0  0.5042161340130348  0.58371934218912  0.49974165371020957  1.0000
  Zn  Zn2       1.0  0.49230902991966025  0.41515763041987713  0.5000617610644653  1.0000
  H   H1        1.0  0.10672858612765171  0.6369806367873281  0.5630298466340375  1.0000
  H   H2        1.0  0.8911019627139609  0.36186682142298576  0.44299107539237775  1.0000
  H   H3        1.0  0.2528094694141672  0.6410599354947949  0.5512353913681522  1.0000
  H   H4        1.0  0.7448134951079338  0.35845117067866283  0.45230701373404253  1.0000
  H   H5        1.0  0.4751067602512933  0.6210954838787759  0.2680886073439055  1.0000
  H   H6        1.0  0.5357406805298838  0.37582488880973136  0.7285412656760997  1.0000
  H   H7        1.0  0.5450353608313989  0.3711417944663324  0.253447180908438  1.0000
  H   H8        1.0  0.4712869457001716  0.6267792495564849  0.7485740359479891  1.0000
  H   H9        1.0  0.5485935116957988  0.3809889174630356  0.11345681380318948  1.0000
  H   H10       1.0  0.4819973527066779  0.6170844685071659  0.8880476328361054  1.0000
  H   H11       1.0  0.4562162667670081  0.7088463889283504  0.5944349359570467  1.0000
  H   H12       1.0  0.5474886581745865  0.2889633358842474  0.409881213986587  1.0000
  H   H13       1.0  0.5773590705697912  0.8684742083350372  0.3939135940798194  1.0000
  H   H14       1.0  0.4241327858949617  0.13162733819924455  0.6107828431158495  1.0000
  H   H15       1.0  0.7574006883562987  0.6034809306029916  0.6430434479996662  1.0000
  H   H16       1.0  0.6762513817795508  0.5907643571970524  0.5903760817240026  1.0000
  H   H17       1.0  0.23744096953103622  0.3965301430736974  0.3599325616291934  1.0000
  H   H18       1.0  0.31967518289328484  0.4094535996788692  0.41110665632330506  1.0000
  H   H19       1.0  0.9510106132760756  0.5962648276286872  0.5706714792848898  1.0000
  H   H20       1.0  0.8602432585926679  0.6453497463715507  0.5901519303220937  1.0000
  H   H21       1.0  0.13625043702268866  0.35400511067130946  0.4150185854453808  1.0000
  H   H22       1.0  0.04551395587905922  0.40261555937516397  0.4358254267798429  1.0000
  H   H23       1.0  0.4343580755335593  0.9287350684734222  0.6200742869509739  1.0000
  H   H24       1.0  0.4134713598202707  0.8349125090507244  0.6574223736481741  1.0000
  H   H25       1.0  0.5786060294619375  0.06902276212345271  0.3922350211604097  1.0000
  H   H26       1.0  0.5978514619627759  0.16222198401638377  0.3526955055490859  1.0000
  C   C1        1.0  0.4940229759016077  0.5069226460264744  0.6467692328017947  1.0000
  C   C2        1.0  0.5082310748373615  0.4901597476884022  0.3532635066539881  1.0000
  C   C3        1.0  0.3499489104896583  0.5323465656914907  0.4879751229353602  1.0000
  C   C4        1.0  0.647084972528809  0.46797929555096834  0.5129164424833448  1.0000
  C   C5        1.0  0.26338061676035096  0.5314661209227654  0.48697461997409863  1.0000
  C   C6        1.0  0.7335509639509256  0.46850434127038915  0.5156877569482248  1.0000
  C   C7        1.0  0.2236196686720007  0.4694803004969828  0.45108069332537326  1.0000
  C   C8        1.0  0.7728295994362072  0.5303619170744868  0.5522721137544124  1.0000
  C   C9        1.0  0.14040805850047633  0.46730489740457415  0.456891507703169  1.0000
  C   C10       1.0  0.8561388846535324  0.5320553195055524  0.5481050559300371  1.0000
  C   C11       1.0  0.09857566394561698  0.5273841071988842  0.49940241292258486  1.0000
  C   C12       1.0  0.8984435314047589  0.47161331646551474  0.5064648214817993  1.0000
  C   C13       1.0  0.1402416084797125  0.5910569614267445  0.5316701992095287  1.0000
  C   C14       1.0  0.8571796052588496  0.4079490128599802  0.47372544300354485  1.0000
  C   C15       1.0  0.22037051522499243  0.5930947269578866  0.5255235822709564  1.0000
  C   C16       1.0  0.7770020635276182  0.40638454017395287  0.4783246146381259  1.0000
  C   C17       1.0  0.4911857163095945  0.573115641672828  0.1571221529747362  1.0000
  C   C18       1.0  0.5329570387460123  0.4243675274559138  0.8400335430181443  1.0000
  C   C19       1.0  0.4908409238506337  0.5681383322781102  0.23470422742727237  1.0000
  C   C20       1.0  0.5245344374559052  0.42905835046775564  0.7629960259175588  1.0000
  C   C21       1.0  0.5100100422869006  0.49531287281309494  0.2694960472691719  1.0000
  C   C22       1.0  0.5022095445542334  0.5019718460370514  0.729996298587089  1.0000
  C   C23       1.0  0.5303201696092471  0.4276353232279106  0.22554207953322697  1.0000
  C   C24       1.0  0.488042814544805  0.5701276559163445  0.7752183189592116  1.0000
  C   C25       1.0  0.5321639996780617  0.43291494849510315  0.1481992406409276  1.0000
  C   C26       1.0  0.4944700034925659  0.5650284616304617  0.8521765232478202  1.0000
  C   C27       1.0  0.512351898639082  0.505873718573561  0.1114267441709984  1.0000
  C   C28       1.0  0.5168668087029217  0.49173727501649733  0.8871062247706121  1.0000
  C   C29       1.0  0.514137878413834  0.5053989587246548  0.032748983430778394  1.0000
  C   C30       1.0  0.5189651428878719  0.4914773475776928  0.9656981943759391  1.0000
  C   C31       1.0  0.476847015067392  0.8321434649877162  0.5578983848804596  1.0000
  C   C32       1.0  0.5296853460199175  0.16615930389888692  0.4493162347431863  1.0000
  C   C33       1.0  0.48356819515314003  0.7473524714918798  0.5524813868718752  1.0000
  C   C34       1.0  0.5198346438668793  0.2508677128460519  0.4519745613423254  1.0000
  C   C35       1.0  0.555939381377101  0.753432839460949  0.4428994865270326  1.0000
  C   C36       1.0  0.44383751910285707  0.2457793182382489  0.5594079535402229  1.0000
  C   C37       1.0  0.5506588305335499  0.8366528921209311  0.4405657856531562  1.0000
  C   C38       1.0  0.4516090439501781  0.16284946056040892  0.5641977905471194  1.0000
  C   C39       1.0  0.511815579679009  0.8781575232013811  0.4992683071690109  1.0000
  C   C40       1.0  0.4937031851544092  0.12082341055702983  0.5078457101025506  1.0000
  C   C41       1.0  0.5068313211870645  0.9628470800879827  0.5015656912555356  1.0000
  C   C42       1.0  0.5001402482132278  0.03615279567462441  0.5071328796514151  1.0000
  N   N1        1.0  0.0192197903270923  0.5275343171793522  0.5173825309008392  1.0000
  N   N2        1.0  0.9779502064348833  0.47130558006892204  0.48933131082231535  1.0000
  N   N3        1.0  0.5231940506859729  0.7092960108318422  0.4973547779459436  1.0000
  N   N4        1.0  0.47694666551067405  0.2892438199862823  0.5046783811967186  1.0000
  N   N5        1.0  0.7356246174408128  0.5936183048324041  0.5913869767084419  1.0000
  N   N6        1.0  0.2602808907338812  0.40654456192756777  0.41111706410195126  1.0000
  N   N7        1.0  0.6032815158729932  0.7113184254384423  0.3841399840493196  1.0000
  N   N8        1.0  0.39335212453945456  0.2882974476516154  0.6155408844067765  1.0000
  N   N9        1.0  0.8924433179450659  0.5934079436861169  0.583875433631647  1.0000
  N   N10       1.0  0.1038442036961413  0.4057549385521001  0.4217077144716582  1.0000
  N   N11       1.0  0.4680636938803389  0.6513107744060422  0.12400937398356861  1.0000
  N   N12       1.0  0.5588695392525908  0.34621743276665035  0.8712784123714952  1.0000
  N   N13       1.0  0.4384366966087541  0.8679470219789565  0.61642115585731  1.0000
  N   N14       1.0  0.5714116765253863  0.12969902968219318  0.39319814600810327  1.0000
  O   O1        1.0  0.48837204171884707  0.5768227928388185  0.618088681289734  1.0000
  O   O2        1.0  0.5095231277083769  0.4201804245315729  0.38215446907571493  1.0000
  O   O3        1.0  0.49411629835342563  0.440001547109489  0.6119278154594028  1.0000
  O   O4        1.0  0.5050672002136665  0.5570987767386556  0.38814592997552916  1.0000
  O   O5        1.0  0.3841499005569702  0.5982575947173887  0.5004168189480251  1.0000
  O   O6        1.0  0.6130236065973521  0.4022794131788459  0.4994852077949474  1.0000
  O   O7        1.0  0.386439151016475  0.4646260826317886  0.47680389058498207  1.0000
  O   O8        1.0  0.6107260668829042  0.5358751518418076  0.5234519373688753  1.0000
  O   O9        1.0  0.605889321224403  0.7445074324561248  0.32191907476239107  1.0000
  O   O10       1.0  0.6379534281596334  0.648535743980091  0.40177670179151187  1.0000
  O   O11       1.0  0.3880452690320126  0.2560623920223293  0.6780369465467186  1.0000
  O   O12       1.0  0.35906176984555316  0.3504795237895026  0.5956098395939619  1.0000
  O   O13       1.0  0.4735228651774577  0.6584731645302356  0.05502213070534619  1.0000
  O   O14       1.0  0.4441975597656054  0.7055698259527574  0.16718541552896224  1.0000
  O   O15       1.0  0.573165796774134  0.3432271489969239  0.938988987871326  1.0000
  O   O16       1.0  0.5652625357271361  0.28788747233406303  0.8278442241700501  1.0000
