data_image0
_chemical_formula_structural       Na2H10C8N16O4
_chemical_formula_sum              "Na2 H10 C8 N16 O4"
_cell_length_a       6.631109147470264
_cell_length_b       7.096299660908424
_cell_length_c       10.368243915227447
_cell_angle_alpha    105.99428929616464
_cell_angle_beta     99.44000008424294
_cell_angle_gamma    108.27879001424748

_space_group_name_H-M_alt    "P 1"
_space_group_IT_number       1

loop_
  _space_group_symop_operation_xyz
  'x, y, z'

loop_
  _atom_site_type_symbol
  _atom_site_label
  _atom_site_symmetry_multiplicity
  _atom_site_fract_x
  _atom_site_fract_y
  _atom_site_fract_z
  _atom_site_occupancy
  Na  Na1       1.0  0.5223579323460256  0.7724625461682916  0.41771171547189556  1.0000
  Na  Na2       1.0  0.47764189372490756  0.22753623200959777  0.5822905328068444  1.0000
  H   H1        1.0  0.26816119375066444  0.5489155467037888  0.06648224818633247  1.0000
  H   H2        1.0  0.7318211401367235  0.4510735991018605  0.9335154850491417  1.0000
  H   H3        1.0  0.19542291849685958  0.8149609177619013  0.5812174221980368  1.0000
  H   H4        1.0  0.8045775187780465  0.18503944404830713  0.4187851872381073  1.0000
  H   H5        1.0  0.09008148970080719  0.8222777740201644  0.4362912751763515  1.0000
  H   H6        1.0  0.9099189475741056  0.17772258779004343  0.5637113342597926  1.0000
  H   H7        1.0  0.8157872603540072  0.5932194447360428  0.2643129709740463  1.0000
  H   H8        1.0  0.18421284799349985  0.40678406734753025  0.7356892405412194  1.0000
  H   H9        1.0  0.8221835002798984  0.8138158998666469  0.25002386852286657  1.0000
  H   H10       1.0  0.17782065086971233  0.18618607955838934  0.7499813425420496  1.0000
  C   C1        1.0  0.22709321356082046  0.7670198517851998  0.9587878954998669  1.0000
  C   C2        1.0  0.772906232185754  0.23298206828743415  0.04121105459962136  1.0000
  C   C3        1.0  0.23406984353155724  0.9727932876559034  0.9746148561943712  1.0000
  C   C4        1.0  0.7659363502311577  0.027210272842587792  0.025385068994097454  1.0000
  C   C5        1.0  0.31747719278492786  0.036570338829115194  0.21871939449481906  1.0000
  C   C6        1.0  0.6825216588899891  0.9634300004040809  0.7812801612000582  1.0000
  C   C7        1.0  0.26763053183770313  0.7059744659765528  0.07606932266616441  1.0000
  C   C8        1.0  0.7323590584758934  0.2940178871300318  0.9239239462989487  1.0000
  N   N1        1.0  0.28149637247025083  0.10762600659557357  0.10831534835743639  1.0000
  N   N2        1.0  0.7185089154257156  0.8923791261297253  0.8916857512583359  1.0000
  N   N3        1.0  0.36292352992798277  0.20174442118339897  0.3355461476625123  1.0000
  N   N4        1.0  0.6370774671539506  0.798257515880493  0.6644539226726633  1.0000
  N   N5        1.0  0.3120190694292617  0.8398853521388431  0.20475292961305058  1.0000
  N   N6        1.0  0.6879788202358411  0.16010865838485697  0.7952424346767228  1.0000
  N   N7        1.0  0.19723819409114887  0.9954515632193333  0.8499785380220001  1.0000
  N   N8        1.0  0.8027622260514421  0.0045487957980014995  0.15002310466135776  1.0000
  N   N9        1.0  0.18679990143962738  0.666890894760044  0.8186583055766475  1.0000
  N   N10       1.0  0.8131964587685444  0.333110994122947  0.18133937080426674  1.0000
  N   N11       1.0  0.1694455482393521  0.8036312024896616  0.7570322448441613  1.0000
  N   N12       1.0  0.8305538975072153  0.19637071758297242  0.2429667052553269  1.0000
  N   N13       1.0  0.307332929386142  0.3129844565154228  0.15850486890756335  1.0000
  N   N14       1.0  0.6926738584482308  0.6870206848225137  0.8414944506855234  1.0000
  N   N15       1.0  0.3559958592702088  0.3637879967391626  0.29484580605234356  1.0000
  N   N16       1.0  0.6440094114934426  0.6362171331932556  0.7051543268106427  1.0000
  O   O1        1.0  0.23387344140532915  0.8536636190578265  0.5012386774222505  1.0000
  O   O2        1.0  0.766127290532353  0.14633358689326306  0.49876239642918546  1.0000
  O   O3        1.0  0.8213989159745907  0.736699601451782  0.316293705238749  1.0000
  O   O4        1.0  0.17860308976799635  0.26330078014255776  0.6837109911858688  1.0000
