data_image0
_chemical_formula_structural       Tl8H40C56O24
_chemical_formula_sum              "Tl8 H40 C56 O24"
_cell_length_a       8.480361784695805
_cell_length_b       8.819445392703106
_cell_length_c       19.192694668088443
_cell_angle_alpha    89.99975477034627
_cell_angle_beta     90.0002516835781
_cell_angle_gamma    89.99856434910565

_space_group_name_H-M_alt    "P 1"
_space_group_IT_number       1

loop_
  _space_group_symop_operation_xyz
  'x, y, z'

loop_
  _atom_site_type_symbol
  _atom_site_label
  _atom_site_symmetry_multiplicity
  _atom_site_fract_x
  _atom_site_fract_y
  _atom_site_fract_z
  _atom_site_occupancy
  Tl  Tl1       1.0  0.8866084782960256  0.4154068980447575  0.4010192192717383  1.0000
  Tl  Tl2       1.0  0.11339696312398927  0.08460058108446587  0.9010220254176743  1.0000
  Tl  Tl3       1.0  0.38660140952484306  0.5846200417066924  0.09898436185448391  1.0000
  Tl  Tl4       1.0  0.6133964470903946  0.9153726820199278  0.5989880568871371  1.0000
  Tl  Tl5       1.0  0.1133949394583809  0.5845949041822961  0.5989805785176117  1.0000
  Tl  Tl6       1.0  0.8865982002509084  0.9154023551007808  0.09897777236226803  1.0000
  Tl  Tl7       1.0  0.6133996497196674  0.41539083141658023  0.9010149148921442  1.0000
  Tl  Tl8       1.0  0.3865951788810306  0.08461778174883249  0.4010159091539124  1.0000
  H   H1        1.0  0.8072313566137622  0.036526696101439896  0.4425566637322547  1.0000
  H   H2        1.0  0.1927603319480724  0.463484924770725  0.9425630661432933  1.0000
  H   H3        1.0  0.30727893357384767  0.9635214429308047  0.05743268975207631  1.0000
  H   H4        1.0  0.6927326757497027  0.5364660053577665  0.5574268557203155  1.0000
  H   H5        1.0  0.19275555253593518  0.9634660354531372  0.5574446971439642  1.0000
  H   H6        1.0  0.8072525193977214  0.5365134757798982  0.057434126500943705  1.0000
  H   H7        1.0  0.692726842460253  0.036488296282101394  0.9425655449372385  1.0000
  H   H8        1.0  0.30727663798428745  0.4635346629495556  0.4425708579497467  1.0000
  H   H9        1.0  0.9645633155313078  0.13911253346112315  0.2749049130468677  1.0000
  H   H10       1.0  0.03544799410692429  0.36089614136411535  0.774905986521695  1.0000
  H   H11       1.0  0.4645668069493424  0.8609193195150903  0.22509621988741907  1.0000
  H   H12       1.0  0.5354464067184351  0.6390846807744307  0.7250903920054412  1.0000
  H   H13       1.0  0.0354377439068401  0.860884733347113  0.7250980109339551  1.0000
  H   H14       1.0  0.9645542444403218  0.6391067947329103  0.22509433229694764  1.0000
  H   H15       1.0  0.53542246031855  0.13909382146493945  0.7749035778767279  1.0000
  H   H16       1.0  0.46456644467888  0.3609103181943424  0.274908363736813  1.0000
  H   H17       1.0  0.1666664519028842  0.9751240176872782  0.2190476751247985  1.0000
  H   H18       1.0  0.8333431663546945  0.5248777722480397  0.7190483989857199  1.0000
  H   H19       1.0  0.6666659760178674  0.024909387736755693  0.2809591103752211  1.0000
  H   H20       1.0  0.3333347786329668  0.4751094345767582  0.7809517055221917  1.0000
  H   H21       1.0  0.8333346075061739  0.024876650680575093  0.7809583750422107  1.0000
  H   H22       1.0  0.1666567138394441  0.4751228961538626  0.2809534829274726  1.0000
  H   H23       1.0  0.33332564960839045  0.9751071547767792  0.719043292545912  1.0000
  H   H24       1.0  0.6666745350816325  0.5248935014369707  0.2190480922719971  1.0000
  H   H25       1.0  0.2588392035876552  0.7396508945944402  0.2787675927957309  1.0000
  H   H26       1.0  0.7411627318109311  0.7603514630677635  0.778765592126696  1.0000
  H   H27       1.0  0.7588308788689204  0.26037574099319716  0.2212425044798749  1.0000
  H   H28       1.0  0.24116930435753398  0.23963911208199554  0.7212390160742785  1.0000
  H   H29       1.0  0.7411594974973851  0.2603441045186797  0.7212368942796488  1.0000
  H   H30       1.0  0.25883596923255675  0.2396469376173228  0.2212394159769673  1.0000
  H   H31       1.0  0.2411642844203854  0.7396339983384619  0.7787578143250755  1.0000
  H   H32       1.0  0.7588341133650189  0.760364957863821  0.2787602606812953  1.0000
  H   H33       1.0  0.13838475123422705  0.666500955109427  0.39293702373377226  1.0000
  H   H34       1.0  0.8616123808255409  0.833500320100107  0.8929366874011678  1.0000
  H   H35       1.0  0.6384040985151599  0.3335274663984931  0.10706970484653061  1.0000
  H   H36       1.0  0.3616044257865596  0.16647599665676435  0.6070692053843985  1.0000
  H   H37       1.0  0.8615927244047012  0.33348837498012057  0.6070653791993906  1.0000
  H   H38       1.0  0.13839103704189168  0.16649467895337006  0.1070683207105319  1.0000
  H   H39       1.0  0.361601677511743  0.6664834066651435  0.8929300929364246  1.0000
  H   H40       1.0  0.638398991950396  0.8335258055875768  0.3929269451838948  1.0000
  C   C1        1.0  0.9856291601016093  0.8585979799720673  0.3978911383895253  1.0000
  C   C2        1.0  0.014363302616040097  0.6414021144522761  0.8978931143979522  1.0000
  C   C3        1.0  0.4856536452298955  0.14142655892263178  0.1021084738937645  1.0000
  C   C4        1.0  0.5143430397147668  0.3585701481825366  0.602104784759895  1.0000
  C   C5        1.0  0.014355390701908298  0.1413902161933365  0.6021070962992284  1.0000
  C   C6        1.0  0.9856436527061162  0.35860082159251055  0.1021061623622757  1.0000
  C   C7        1.0  0.5143450556858865  0.8585797787941797  0.8978913238864551  1.0000
  C   C8        1.0  0.48565566133786564  0.6414248509626929  0.3978929289049589  1.0000
  C   C9        1.0  0.9376457953136776  0.9947308614730513  0.3647674180701728  1.0000
  C   C10       1.0  0.06234752961112379  0.5052684131476255  0.8647692325977302  1.0000
  C   C11       1.0  0.4376753020688752  0.005300509888456899  0.135230534503556  1.0000
  C   C12       1.0  0.5623323125272464  0.49470155234214275  0.6352235528666483  1.0000
  C   C13       1.0  0.06233875548762308  0.005258468538151799  0.6352334217753821  1.0000
  C   C14       1.0  0.9376629633300338  0.4947311212897246  0.1352279600430322  1.0000
  C   C15       1.0  0.5623245779756728  0.9947103632540575  0.8647677001787316  1.0000
  C   C16       1.0  0.43767582202146826  0.505297982126265  0.36477311874016755  1.0000
  C   C17       1.0  0.0029159548173467  0.03485560888675109  0.3001386470185352  1.0000
  C   C18       1.0  0.9970802668166027  0.4651505591419747  0.8001414553644608  1.0000
  C   C19       1.0  0.5029304447620291  0.9651715613541679  0.1998625984793492  1.0000
  C   C20       1.0  0.49707545229858857  0.5348281428496122  0.6998558526462517  1.0000
  C   C21       1.0  0.9970756711269357  0.965135988752507  0.6998627138635314  1.0000
  C   C22       1.0  0.0029266884908735994  0.5348535107609605  0.19985782139467292  1.0000
  C   C23       1.0  0.4970658977762667  0.034834776378879384  0.8001398044563857  1.0000
  C   C24       1.0  0.5029338615356878  0.46516458845315595  0.3001413399998967  1.0000
  C   C25       1.0  0.11663976262848758  0.9428876652386502  0.2692261230991093  1.0000
  C   C26       1.0  0.8833644399569707  0.5571068458488069  0.7692258433625554  1.0000
  C   C27       1.0  0.6166450469849778  0.05713448045283087  0.23077795653222918  1.0000
  C   C28       1.0  0.38336112357207236  0.44287007744823365  0.7307675884664206  1.0000
  C   C29       1.0  0.8833577593031378  0.05710393231679227  0.7307778429467788  1.0000
  C   C30       1.0  0.11664015700709739  0.4428938225058089  0.23077395442906834  1.0000
  C   C31       1.0  0.3833524746674044  0.9428775265640605  0.7692228833044865  1.0000
  C   C32       1.0  0.6166517277637453  0.5571283231122662  0.2692275200514942  1.0000
  C   C33       1.0  0.1679024240426301  0.8102005388743687  0.3023540116448018  1.0000
  C   C34       1.0  0.8320950202785224  0.6898049967621345  0.8023559775522173  1.0000
  C   C35       1.0  0.6679133886078785  0.1898237655878957  0.1976517343009618  1.0000
  C   C36       1.0  0.3320889273373595  0.31018337413617286  0.6976472506332385  1.0000
  C   C37       1.0  0.8320915602647289  0.18979332645012895  0.697647870269023  1.0000
  C   C38       1.0  0.16791075585392426  0.3101990731353367  0.1976474674583599  1.0000
  C   C39       1.0  0.3320864915003837  0.8101825721170922  0.8023475424488637  1.0000
  C   C40       1.0  0.6679144904561126  0.6898150265213797  0.3023515050962331  1.0000
  C   C41       1.0  0.10105587761096758  0.7690011783478707  0.36588701173229055  1.0000
  C   C42       1.0  0.8989350995928262  0.7310003534183807  0.865885385434737  1.0000
  C   C43       1.0  0.6010722423345028  0.23102361272547253  0.1341149524035785  1.0000
  C   C44       1.0  0.3989259280630718  0.26897732631616117  0.6341127670229484  1.0000
  C   C45       1.0  0.8989274940053276  0.23098815166773787  0.6341159122383857  1.0000
  C   C46       1.0  0.10107185580773148  0.2689969133307386  0.1341149333941232  1.0000
  C   C47       1.0  0.39892645858847686  0.7689815911406013  0.8658832822830007  1.0000
  C   C48       1.0  0.6010798480491529  0.7310256097577433  0.365883383546624  1.0000
  C   C49       1.0  0.9129114947983509  0.8117645297152903  0.46559395373070345  1.0000
  C   C50       1.0  0.0870851533356714  0.6882417258917497  0.9655933805375411  1.0000
  C   C51       1.0  0.41292940236471753  0.18825950437513223  0.0344086383207625  1.0000
  C   C52       1.0  0.5870678139634151  0.31173104147040925  0.5344057071095064  1.0000
  C   C53       1.0  0.08707423509265058  0.18823273729110915  0.5344063650767907  1.0000
  C   C54       1.0  0.9129206229017653  0.31175327315290247  0.034407459323908506  1.0000
  C   C55       1.0  0.587068119338916  0.8117479672165895  0.9655906384255957  1.0000
  C   C56       1.0  0.41293442464477437  0.6882662253482366  0.4655920065567117  1.0000
  O   O1        1.0  0.9362224653364989  0.6795596783846845  0.4889102680144717  1.0000
  O   O2        1.0  0.0637814810276112  0.8204520253586975  0.9889078294436972  1.0000
  O   O3        1.0  0.43623554653214563  0.320481932386805  0.0110913288880425  1.0000
  O   O4        1.0  0.5637614466133128  0.17951223610673842  0.5110912112875071  1.0000
  O   O5        1.0  0.0637715189830459  0.3204330530841374  0.5110910928688668  1.0000
  O   O6        1.0  0.936218399215562  0.17954524146382767  0.0110950945359392  1.0000
  O   O7        1.0  0.5637572583719147  0.6795266731251741  0.9889069057893067  1.0000
  O   O8        1.0  0.4362431503604469  0.820487298394667  0.488907544442057  1.0000
  O   O9        1.0  0.8259753620534553  0.9126459340381811  0.49566145912093873  1.0000
  O   O10       1.0  0.17402511146934066  0.5873566348548493  0.9956622978908314  1.0000
  O   O11       1.0  0.32600384859928505  0.08739494763090509  0.004337831691756801  1.0000
  O   O12       1.0  0.6740048718423421  0.41259928477494157  0.5043333175999011  1.0000
  O   O13       1.0  0.1740139055424308  0.08734226205769598  0.5043393807304567  1.0000
  O   O14       1.0  0.8259830231505702  0.41263836416862876  0.004336978878257  1.0000
  O   O15       1.0  0.6739960315089845  0.9126113900740829  0.9956614450580689  1.0000
  O   O16       1.0  0.32599618755369864  0.5873991159186145  0.4956638750324629  1.0000
  O   O17       1.0  0.8273475515467935  0.08586878746676516  0.3939860725778601  1.0000
  O   O18       1.0  0.17264956829541228  0.41413308913547536  0.8939935718659626  1.0000
  O   O19       1.0  0.32738272107230415  0.9141618561748999  0.10600436347748142  1.0000
  O   O20       1.0  0.6726293529801096  0.5858330685909008  0.6059963094979182  1.0000
  O   O21       1.0  0.17263817841512719  0.9141228102513774  0.6060137252035318  1.0000
  O   O22       1.0  0.8273609246482394  0.5858664452994018  0.10600414180638039  1.0000
  O   O23       1.0  0.6726206965890285  0.08584674920597017  0.8939943922421422  1.0000
  O   O24       1.0  0.3273787815979716  0.41416419816121663  0.394000362111079  1.0000
