data_image0
_chemical_formula_structural       AlH24C45Br3O6
_chemical_formula_sum              "Al1 H24 C45 Br3 O6"
_cell_length_a       3.9682405456950014
_cell_length_b       23.50762828773408
_cell_length_c       23.52659767892813
_cell_angle_alpha    60.042024400535105
_cell_angle_beta     86.91004350914423
_cell_angle_gamma    86.57260657174932

_space_group_name_H-M_alt    "P 1"
_space_group_IT_number       1

loop_
  _space_group_symop_operation_xyz
  'x, y, z'

loop_
  _atom_site_type_symbol
  _atom_site_label
  _atom_site_symmetry_multiplicity
  _atom_site_fract_x
  _atom_site_fract_y
  _atom_site_fract_z
  _atom_site_occupancy
  Al  Al1       1.0  0.9886565196013137  0.499629795496034  0.5005766548717645  1.0000
  H   H1        1.0  0.513398177712496  0.3217421039102248  0.6805638445029487  1.0000
  H   H2        1.0  0.5122926484096767  0.2583194523351722  0.8021270937384841  1.0000
  H   H3        1.0  0.8235989477836371  0.22598561110156365  0.89183869514207  1.0000
  H   H4        1.0  0.8367297391188657  0.16528963109126238  0.012138619323053502  1.0000
  H   H5        1.0  0.4760117298014563  0.8049497055964139  0.2543227776192793  1.0000
  H   H6        1.0  0.23152980274885956  0.8985830089100233  0.22402708941639557  1.0000
  H   H7        1.0  0.2445436325876287  0.0182496634901739  0.1645505048430849  1.0000
  H   H8        1.0  0.5258783992363477  0.1059482793030853  0.10520228319262508  1.0000
  H   H9        1.0  0.5490633906865766  0.678809834707806  0.4963126714965754  1.0000
  H   H10       1.0  0.5457733342752463  0.8002024835607884  0.4393045312186387  1.0000
  H   H11       1.0  0.7986005106681802  0.8913149018797668  0.37898633656735115  1.0000
  H   H12       1.0  0.8107263580751508  0.011054441302270802  0.31953272150825274  1.0000
  H   H13       1.0  0.5555226517504083  0.25444870921696605  0.43920442387590697  1.0000
  H   H14       1.0  0.262324857837939  0.2276828198154277  0.3805600970938841  1.0000
  H   H15       1.0  0.260262904861385  0.16737823767240198  0.32075880290700104  1.0000
  H   H16       1.0  0.5485496486283807  0.1052756418764602  0.2880877001335164  1.0000
  H   H17       1.0  0.5936674840787505  0.4973611842819352  0.3223989241416873  1.0000
  H   H18       1.0  0.5860526777244817  0.4400992407619597  0.2581311896949785  1.0000
  H   H19       1.0  0.8550755325450085  0.37677175229882914  0.22336969702307388  1.0000
  H   H20       1.0  0.8524920648426288  0.3163849876738709  0.16352805332108739  1.0000
  H   H21       1.0  0.5069043696561977  0.44031277112885187  0.805541364628759  1.0000
  H   H22       1.0  0.20555135050094012  0.3797803010764227  0.8985646062805515  1.0000
  H   H23       1.0  0.21968535787974738  0.31916169480001594  0.018796912227948298  1.0000
  H   H24       1.0  0.5495626927378437  0.2881277985008666  0.10570323397215017  1.0000
  C   C1        1.0  0.4783519356659981  0.45080209184655456  0.6013925310078605  1.0000
  C   C2        1.0  0.5246687052846681  0.44785860996776705  0.4511761061656329  1.0000
  C   C3        1.0  0.47536536784084416  0.6004555434481205  0.4482561078863583  1.0000
  C   C4        1.0  0.5064766096538734  0.3471903927993623  0.7087437888869131  1.0000
  C   C5        1.0  0.5099948377143023  0.31185372794650584  0.7768516981040818  1.0000
  C   C6        1.0  0.684169910335214  0.2461817279300789  0.9194028905100707  1.0000
  C   C7        1.0  0.6913458317452452  0.21176273546185337  0.9875499754016273  1.0000
  C   C8        1.0  0.4609519163449463  0.7103407474301093  0.3407109240453749  1.0000
  C   C9        1.0  0.47889267155142784  0.7784379644309638  0.3077130127677137  1.0000
  C   C10       1.0  0.36764150619745095  0.9226225243933611  0.24471364914288074  1.0000
  C   C11       1.0  0.3745527256467085  0.990739789549387  0.21089603316587363  1.0000
  C   C12       1.0  0.4871294718456626  0.41612217881647234  0.6745497139169528  1.0000
  C   C13       1.0  0.5061078535701212  0.3444666115170775  0.8132990425929023  1.0000
  C   C14       1.0  0.5144235356351673  0.307821300065065  0.8856043240439817  1.0000
  C   C15       1.0  0.5296349104229775  0.237514575738814  0.024906478010706175  1.0000
  C   C16       1.0  0.5374552892338399  0.20109812538602503  0.0972611253418094  1.0000
  C   C17       1.0  0.5337187204056235  0.13234653666736304  0.13221270419274592  1.0000
  C   C18       1.0  0.5264207242159601  0.7074494038588383  0.4431604467160142  1.0000
  C   C19       1.0  0.5293213332472108  0.7755278116043128  0.41079412264666365  1.0000
  C   C20       1.0  0.6687174153836751  0.9187106157704075  0.33266600135694113  1.0000
  C   C21       1.0  0.6751740488225907  0.9868758843643021  0.2988788507822521  1.0000
  C   C22       1.0  0.5413944538133181  0.34085100795355316  0.4480989839934466  1.0000
  C   C23       1.0  0.5515736662502065  0.3079454293725162  0.412618870600312  1.0000
  C   C24       1.0  0.4001128551677127  0.24680238897274615  0.3336323640514678  1.0000
  C   C25       1.0  0.3992344994568171  0.21249124907071598  0.2997545475293392  1.0000
  C   C26       1.0  0.4860997036034648  0.6734460485837558  0.4091577837169424  1.0000
  C   C27       1.0  0.507530734165485  0.812505960783973  0.3420657472572017  1.0000
  C   C28       1.0  0.515104866235653  0.884859642981219  0.3063703605453512  1.0000
  C   C29       1.0  0.5288765302257588  0.0245721171530207  0.23711014684619158  1.0000
  C   C30       1.0  0.5371202873674434  0.09699641458134067  0.20097578297043836  1.0000
  C   C31       1.0  0.5462598972379383  0.1320463715557381  0.2346344345272371  1.0000
  C   C32       1.0  0.5800621142366966  0.44401134432693806  0.3473445962304141  1.0000
  C   C33       1.0  0.5797850198893288  0.4115594511997998  0.3115935055970026  1.0000
  C   C34       1.0  0.7169330571205352  0.3315874320765531  0.24453012145821157  1.0000
  C   C35       1.0  0.7158112715310095  0.29726515306992946  0.2106065994167494  1.0000
  C   C36       1.0  0.4818307883540029  0.44857194991832466  0.7109200517509463  1.0000
  C   C37       1.0  0.49616790915255393  0.41346769480764317  0.7790698744506345  1.0000
  C   C38       1.0  0.35171720321081784  0.333432301654895  0.9230245248788403  1.0000
  C   C39       1.0  0.3593940238622367  0.2990782841166322  0.9911365840835342  1.0000
  C   C40       1.0  0.552380815701774  0.40952311755923887  0.4161218863072023  1.0000
  C   C41       1.0  0.5632339107736115  0.34275679228544215  0.3436638942349716  1.0000
  C   C42       1.0  0.5597429162591823  0.30706441475109597  0.30694894747833246  1.0000
  C   C43       1.0  0.5569802379577597  0.23694362369602828  0.23741762137003514  1.0000
  C   C44       1.0  0.5512525851287579  0.20080833543673995  0.20113951491541118  1.0000
  C   C45       1.0  0.5465549270313659  0.2346278295024931  0.13240047279809627  1.0000
  Br  Br1       1.0  0.5389225217020625  0.2888446884243762  0.541278417850819  1.0000
  Br  Br2       1.0  0.480147891576472  0.5418893949656507  0.6688819985806163  1.0000
  Br  Br3       1.0  0.42505779142480554  0.669980266007279  0.2885781510084016  1.0000
  O   O1        1.0  0.24422567792768765  0.572312340990578  0.43724711797748483  1.0000
  O   O2        1.0  0.22984396192325826  0.4902284739122251  0.5735478282029405  1.0000
  O   O3        1.0  0.2760100384934391  0.4366877495837684  0.4913620386868017  1.0000
  O   O4        1.0  0.6984640181792089  0.5710850247216114  0.49183226316846157  1.0000
  O   O5        1.0  0.745910542920818  0.49037905799598747  0.437177427122549  1.0000
  O   O6        1.0  0.7205280383940507  0.4367875729820624  0.5720667070280143  1.0000
