data_image0
_chemical_formula_structural       CdH18C16N4O6
_chemical_formula_sum              "Cd1 H18 C16 N4 O6"
_cell_length_a       7.105230278456145
_cell_length_b       8.28743146922723
_cell_length_c       9.302418109511258
_cell_angle_alpha    94.19070798396427
_cell_angle_beta     117.1869354286232
_cell_angle_gamma    102.77532646785862

_space_group_name_H-M_alt    "P 1"
_space_group_IT_number       1

loop_
  _space_group_symop_operation_xyz
  'x, y, z'

loop_
  _atom_site_type_symbol
  _atom_site_label
  _atom_site_symmetry_multiplicity
  _atom_site_fract_x
  _atom_site_fract_y
  _atom_site_fract_z
  _atom_site_occupancy
  Cd  Cd1       1.0  1.77921062132e-05  1.3834607834400002e-05  3.6136527441000023e-06  1.0000
  H   H1        1.0  0.6919485314429467  0.7344598332147714  0.6532562685993573  1.0000
  H   H2        1.0  0.3080845584877991  0.26554980690495006  0.3467645431757661  1.0000
  H   H3        1.0  0.5046878514343406  0.7268154998344942  0.3465251585056708  1.0000
  H   H4        1.0  0.4953019281794369  0.2731665674556467  0.6534922683448843  1.0000
  H   H5        1.0  0.6011778524837582  0.9895383541441377  0.24636688271625226  1.0000
  H   H6        1.0  0.398797260711774  0.010430888156754706  0.7536297696549001  1.0000
  H   H7        1.0  0.02795332786030265  0.2406825794969835  0.7565538332986395  1.0000
  H   H8        1.0  0.9720675268519728  0.7593216070680529  0.24343241010685568  1.0000
  H   H9        1.0  0.8289077165380546  0.2785460375500223  0.306868133694053  1.0000
  H   H10       1.0  0.17108082654532822  0.7214354267747115  0.6931047561513711  1.0000
  H   H11       1.0  0.46019216719257383  0.4399988217555589  0.8256785525015577  1.0000
  H   H12       1.0  0.5398140881743531  0.5600157668861245  0.17432379460966985  1.0000
  H   H13       1.0  0.28159577977216815  0.5258938040087388  0.8716856327081719  1.0000
  H   H14       1.0  0.7184029645059768  0.4741171201399298  0.12832255743290946  1.0000
  H   H15       1.0  0.09265652502402603  0.6986545910500513  0.9739311420688855  1.0000
  H   H16       1.0  0.9073475635997853  0.3013537860992842  0.026077630698253522  1.0000
  H   H17       1.0  0.32562941789970523  0.809598640043163  0.9949447653936478  1.0000
  H   H18       1.0  0.6743785434171914  0.1904121419705477  0.005056858607197453  1.0000
  C   C1        1.0  0.7247435675895844  0.8453397805884464  0.6025637043315799  1.0000
  C   C2        1.0  0.275267401251881  0.15465726328637436  0.3974499517608196  1.0000
  C   C3        1.0  0.6240213602150888  0.8417833603593436  0.433685377420119  1.0000
  C   C4        1.0  0.3759861961241029  0.15820377159938204  0.5663405150048819  1.0000
  C   C5        1.0  0.6757429510198565  0.9877621523961937  0.37785017924477454  1.0000
  C   C6        1.0  0.32423739736420754  0.012217117843135806  0.6221434619870367  1.0000
  C   C7        1.0  0.8230895550757183  0.13560805546487134  0.4941214337975598  1.0000
  C   C8        1.0  0.17689396063556745  0.864384872863184  0.5058568841842901  1.0000
  C   C9        1.0  0.9143464150509006  0.12854126099853863  0.6621820192026892  1.0000
  C   C10       1.0  0.08565487738580668  0.8714567319980945  0.33780476435359946  1.0000
  C   C11       1.0  0.878457735144835  0.28992122466554804  0.4384349097227162  1.0000
  C   C12       1.0  0.12152328207128713  0.7100653303989549  0.5615378849624408  1.0000
  C   C13       1.0  0.5924622234864855  0.7048833816524792  0.9349312384590579  1.0000
  C   C14       1.0  0.40754588472597675  0.2951313377180114  0.06508142011385593  1.0000
  C   C15       1.0  0.45442107615853905  0.5280332944149324  0.916600737218538  1.0000
  C   C16       1.0  0.5455763813235067  0.4719788060118832  0.08340063591072074  1.0000
  N   N1        1.0  0.8680608433271217  0.9866994299263754  0.7147410482546521  1.0000
  N   N2        1.0  0.13195255281328852  0.013308849207419407  0.28526441717749423  1.0000
  N   N3        1.0  0.9798577210634605  0.43504710777220634  0.539037382987026  1.0000
  N   N4        1.0  0.020118736773028417  0.56493567659507  0.4609347209408912  1.0000
  O   O1        1.0  0.7717897419076039  0.7175837226944781  0.9293526505524458  1.0000
  O   O2        1.0  0.2282196986410271  0.2824386050435948  0.07066305937900104  1.0000
  O   O3        1.0  0.5303218788562205  0.8311701101311756  0.9596190658194177  1.0000
  O   O4        1.0  0.4696667505816663  0.16883948737429932  0.04038024705945988  1.0000
  O   O5        1.0  0.21190936402672395  0.802906157798532  0.033246963940172264  1.0000
  O   O6        1.0  0.7880976461469517  0.19710209844011223  0.9667541887714609  1.0000
