data_image0
_chemical_formula_structural       CdH32C36S4N6O6
_chemical_formula_sum              "Cd1 H32 C36 S4 N6 O6"
_cell_length_a       10.391879202603642
_cell_length_b       12.037851146478307
_cell_length_c       12.544917378417747
_cell_angle_alpha    65.92916056545268
_cell_angle_beta     73.55830688624815
_cell_angle_gamma    77.34819537127392

_space_group_name_H-M_alt    "P 1"
_space_group_IT_number       1

loop_
  _space_group_symop_operation_xyz
  'x, y, z'

loop_
  _atom_site_type_symbol
  _atom_site_label
  _atom_site_symmetry_multiplicity
  _atom_site_fract_x
  _atom_site_fract_y
  _atom_site_fract_z
  _atom_site_occupancy
  Cd  Cd1       1.0  7.590905611047819e-07  2.4037904467001905e-06  0.9999968566659377  1.0000
  H   H1        1.0  0.3028880034021242  0.49952810098420036  0.8088095145234176  1.0000
  H   H2        1.0  0.6971106223138293  0.5004726676440896  0.1911868934689592  1.0000
  H   H3        1.0  0.3917106172125601  0.5936705547210012  0.6666528459793142  1.0000
  H   H4        1.0  0.6083042791463029  0.40633005036052355  0.33335321327025  1.0000
  H   H5        1.0  0.3709126269219708  0.29224195209954473  0.9060880416199381  1.0000
  H   H6        1.0  0.6290883953820555  0.7077560392655117  0.0939120500786997  1.0000
  H   H7        1.0  0.5007576031967672  0.09646929777909463  0.8948900486301241  1.0000
  H   H8        1.0  0.49923909132431993  0.9035305788439913  0.10510478485794292  1.0000
  H   H9        1.0  0.6833189822476413  0.09704559170798181  0.7185236890510042  1.0000
  H   H10       1.0  0.3166745383231984  0.9029552353315113  0.2814683598270306  1.0000
  H   H11       1.0  0.7416409062696941  0.29661472083691365  0.5544558202340184  1.0000
  H   H12       1.0  0.25835370358944937  0.7033860702857313  0.44554155755741215  1.0000
  H   H13       1.0  0.5545049615517357  0.6016667454221932  0.5359318338594078  1.0000
  H   H14       1.0  0.44549866819748024  0.3983348767024922  0.46406940083310383  1.0000
  H   H15       1.0  0.6580412527707368  0.5131867202498555  0.4526473316267712  1.0000
  H   H16       1.0  0.3419581588979454  0.4868167481843885  0.5473558080363786  1.0000
  H   H17       1.0  0.1046769477767739  0.833525189010338  0.24922196631610655  1.0000
  H   H18       1.0  0.8953196857985262  0.16647470925079233  0.7507688876268476  1.0000
  H   H19       1.0  0.03135817725325298  0.6710732758111676  0.44726785551124953  1.0000
  H   H20       1.0  0.9686428572827738  0.3289320701052318  0.5527237957886156  1.0000
  H   H21       1.0  0.6472076021456701  0.7191018453190098  0.3514811294172588  1.0000
  H   H22       1.0  0.3527873719948218  0.28089618844278874  0.648518825161915  1.0000
  H   H23       1.0  0.7372411087264366  0.8759706393525948  0.1605300395525333  1.0000
  H   H24       1.0  0.26275565033903797  0.12402833834571683  0.8394619386226766  1.0000
  H   H25       1.0  0.2989320568880061  0.8517300951141281  0.04411134943828194  1.0000
  H   H26       1.0  0.701072900983533  0.14827701317463493  0.9558874304153163  1.0000
  H   H27       1.0  0.4755630651775605  0.7010009482709381  0.9811899613193872  1.0000
  H   H28       1.0  0.5244391073605498  0.2989969855392189  0.01881943883775962  1.0000
  H   H29       1.0  0.05718763120659528  0.8530797196846082  0.8316464865048231  1.0000
  H   H30       1.0  0.9428163993914397  0.14691913209640725  0.16835971270249667  1.0000
  H   H31       1.0  0.21954377667469055  0.7016846836096919  0.7609773092748  1.0000
  H   H32       1.0  0.7804600308770658  0.29830776447605706  0.2390306347358901  1.0000
  C   C1        1.0  0.40355423859265477  0.5206935825704094  0.7528636744977603  1.0000
  C   C2        1.0  0.5964485492499917  0.4793071116322239  0.2471413146038373  1.0000
  C   C3        1.0  0.48598596321151893  0.4060139815190028  0.7388370909865215  1.0000
  C   C4        1.0  0.5140190225940912  0.5939848819488632  0.2611656821349513  1.0000
  C   C5        1.0  0.4540985993145341  0.2933399132374603  0.8296835261271696  1.0000
  C   C6        1.0  0.5459038034242029  0.7066553108155491  0.1703196958184776  1.0000
  C   C7        1.0  0.5251167758241381  0.18318436712312552  0.8228062674516606  1.0000
  C   C8        1.0  0.47488021843391703  0.8168136510638961  0.1771939981370067  1.0000
  C   C9        1.0  0.6284682701071276  0.1837963235719756  0.723072640765494  1.0000
  C   C10       1.0  0.3715284609814303  0.8162035400682872  0.2769245804496449  1.0000
  C   C11       1.0  0.6607640084963863  0.29529900598851105  0.6325586287433396  1.0000
  C   C12       1.0  0.33923477927720563  0.7047008290941364  0.36744129120836533  1.0000
  C   C13       1.0  0.5921513863917198  0.4073853649505852  0.6393831531090299  1.0000
  C   C14       1.0  0.4078507983783978  0.592619923410915  0.36061780664933707  1.0000
  C   C15       1.0  0.6337095935433439  0.5241270761173951  0.5391576056522355  1.0000
  C   C16       1.0  0.3662909877457849  0.4758745758608784  0.46084196866249977  1.0000
  C   C17       1.0  0.00421060609535568  0.804612325324925  0.27596418740510126  1.0000
  C   C18       1.0  0.9957868048421191  0.195389399783032  0.7240257674416312  1.0000
  C   C19       1.0  0.9623134533484787  0.7153257248009552  0.386780312601779  1.0000
  C   C20       1.0  0.037683115682440885  0.2846750723849497  0.6132133966540322  1.0000
  C   C21       1.0  0.8326697903498045  0.678994296851755  0.4174991660574747  1.0000
  C   C22       1.0  0.167325710172527  0.32100740488251495  0.5824976409609589  1.0000
  C   C23       1.0  0.7496434545401696  0.7393663591518022  0.3345590423883635  1.0000
  C   C24       1.0  0.2503529854019817  0.260636235883652  0.6654403774931694  1.0000
  C   C25       1.0  0.8002013153760075  0.8283358622522459  0.22599359623842466  1.0000
  C   C26       1.0  0.19979559355794416  0.17166218622802631  0.7740010979870817  1.0000
  C   C27       1.0  0.2857909635547955  0.8156442926942093  0.9815046654537838  1.0000
  C   C28       1.0  0.7142139089497944  0.18435548700886534  0.018497779344457347  1.0000
  C   C29       1.0  0.3838945946383277  0.7314223138692598  0.9463331318239978  1.0000
  C   C30       1.0  0.6161050557786895  0.26857195888801044  0.05368069670243608  1.0000
  C   C31       1.0  0.36237533516421644  0.6852942226156387  0.8669828535596622  1.0000
  C   C32       1.0  0.6376209548237526  0.3146945838799554  0.13303232288717476  1.0000
  C   C33       1.0  0.15088391161080486  0.8164619778367099  0.8633006978504199  1.0000
  C   C34       1.0  0.8491182487381438  0.18353596030105726  0.13670790639770303  1.0000
  C   C35       1.0  0.2428248945996572  0.7310150748616452  0.8240296145981033  1.0000
  C   C36       1.0  0.7571786619289115  0.2689718554707881  0.17598531725587913  1.0000
  S   S1        1.0  0.7865895401778006  0.5615835763066458  0.5551325875418697  1.0000
  S   S2        1.0  0.2134145550074606  0.4384217354285483  0.44486152004479607  1.0000
  S   S3        1.0  0.4859154263622614  0.5753420001611645  0.8298553421456845  1.0000
  S   S4        1.0  0.5140821307594052  0.42464495525759133  0.17016263622491568  1.0000
  N   N1        1.0  0.21495861299897004  0.12220927941359615  0.06817279040440379  1.0000
  N   N2        1.0  0.785039057552261  0.8777988364067966  0.9318178073660235  1.0000
  N   N3        1.0  0.9253444034030167  0.860246648206861  0.19528972130649438  1.0000
  N   N4        1.0  0.07464954599355171  0.13975052254701134  0.8047020490464263  1.0000
  N   N5        1.0  0.16988718378274828  0.8577862537421982  0.941706221951172  1.0000
  N   N6        1.0  0.8301164459664608  0.14221536838248744  0.05829501274133959  1.0000
  O   O1        1.0  0.1664624793039735  0.021565652437267598  0.09210895309503539  1.0000
  O   O2        1.0  0.8335460641624337  0.9784351032312132  0.9078770713094925  1.0000
  O   O3        1.0  0.1564164487782094  0.22333006278282858  0.010443716674920672  1.0000
  O   O4        1.0  0.8435735177732724  0.7766753536482656  0.9895490097542847  1.0000
  O   O5        1.0  0.31935710762864034  0.1143049737740398  0.10359684147098845  1.0000
  O   O6        1.0  0.6806383857821884  0.8857132002915904  0.896395162647785  1.0000
