data_image0
_chemical_formula_structural       Al4H24C40O20F4
_chemical_formula_sum              "Al4 H24 C40 O20 F4"
_cell_length_a       6.65395091384982
_cell_length_b       14.4891767862955
_cell_length_c       15.717832640127467
_cell_angle_alpha    89.99859360345256
_cell_angle_beta     90.49099216930982
_cell_angle_gamma    90.1470034331876

_space_group_name_H-M_alt    "P 1"
_space_group_IT_number       1

loop_
  _space_group_symop_operation_xyz
  'x, y, z'

loop_
  _atom_site_type_symbol
  _atom_site_label
  _atom_site_symmetry_multiplicity
  _atom_site_fract_x
  _atom_site_fract_y
  _atom_site_fract_z
  _atom_site_occupancy
  Al  Al1       1.0  0.011640416056991398  0.9987924869436143  0.5019603922212637  1.0000
  Al  Al2       1.0  0.5112265297995577  0.0019006304146386998  0.5005516740496743  1.0000
  Al  Al3       1.0  0.9970848164056108  0.49937459827634006  0.9988623700800967  1.0000
  Al  Al4       1.0  0.4963652387731442  0.5012512762311304  0.9975947905794765  1.0000
  H   H1        1.0  0.2661285361775896  0.8781904708695761  0.49115287258712925  1.0000
  H   H2        1.0  0.7672024172609394  0.11956189383164428  0.47731319908569236  1.0000
  H   H3        1.0  0.24456207543347822  0.6140133421775289  0.03584086285838589  1.0000
  H   H4        1.0  0.7418675021745428  0.38382559332362126  0.027785178343449995  1.0000
  H   H5        1.0  0.47026547640783883  0.6408299319018691  0.7621212515920346  1.0000
  H   H6        1.0  0.0988809840754428  0.8075591747471476  0.9117859638191343  1.0000
  H   H7        1.0  0.23467375435345864  0.7311046511924386  0.8448164281725565  1.0000
  H   H8        1.0  0.2295274449490066  0.8523191130624425  0.7282049400527056  1.0000
  H   H9        1.0  0.09535746262252329  0.9273831730162739  0.7971898493773748  1.0000
  H   H10       1.0  0.9759969006085072  0.36203107931237344  0.23955275572566134  1.0000
  H   H11       1.0  0.5815490669014097  0.18794371608687743  0.08488687825536088  1.0000
  H   H12       1.0  0.7262133987705184  0.2635435836481292  0.1513205768386499  1.0000
  H   H13       1.0  0.7261988189984622  0.14442696063968435  0.26779785560081126  1.0000
  H   H14       1.0  0.5800705284051944  0.06936869617418041  0.20180045548067935  1.0000
  H   H15       1.0  0.5262038576234218  0.3731250338062608  0.7560579730591852  1.0000
  H   H16       1.0  0.9232197505259233  0.19168488147587942  0.9058782132129576  1.0000
  H   H17       1.0  0.7773326928395362  0.2661536712387401  0.8395621489272994  1.0000
  H   H18       1.0  0.7883114262645562  0.1471581654325007  0.7215048896640254  1.0000
  H   H19       1.0  0.9320549087486469  0.0733002698915755  0.7891110880286403  1.0000
  H   H20       1.0  0.4741865455121399  0.6312322710975379  0.24489990854063845  1.0000
  H   H21       1.0  0.22478054110869286  0.7323341365130387  0.15690971095836653  1.0000
  H   H22       1.0  0.07892069898026927  0.8081363372757623  0.09144305489196818  1.0000
  H   H23       1.0  0.0784989870817299  0.925473378238074  0.20943959507668095  1.0000
  H   H24       1.0  0.22515464363730328  0.8500898964842064  0.2745666987024933  1.0000
  C   C1        1.0  0.7625368453266076  0.8829559570345322  0.39139321683391154  1.0000
  C   C2        1.0  0.7534383821901257  0.8917945401640707  0.6167562120383963  1.0000
  C   C3        1.0  0.25730378491176953  0.11615507912360809  0.6105739214216184  1.0000
  C   C4        1.0  0.2638591702467536  0.11056984259219152  0.38518460349840905  1.0000
  C   C5        1.0  0.7427945462311456  0.6101778556210888  0.11502688152328484  1.0000
  C   C6        1.0  0.7550644722759187  0.6126524141624686  0.8868554998127247  1.0000
  C   C7        1.0  0.25186711795386424  0.39329202168458716  0.8825853573005771  1.0000
  C   C8        1.0  0.24278776905327953  0.38524346139659826  0.11035289869261075  1.0000
  C   C9        1.0  0.7558998106831325  0.6829922166711597  0.8181304969307275  1.0000
  C   C10       1.0  0.7542441059337361  0.8208248944140877  0.6851966645313468  1.0000
  C   C11       1.0  0.912353771420882  0.7461248689764446  0.8086924821283076  1.0000
  C   C12       1.0  0.5991028164170443  0.7552118436742886  0.6950932764797739  1.0000
  C   C13       1.0  0.910063435005348  0.8129138832470275  0.7447633269963132  1.0000
  C   C14       1.0  0.5960434190112593  0.6890214999341354  0.7592091720649773  1.0000
  C   C15       1.0  0.10933580853701837  0.7801052976655926  0.8467200304574474  1.0000
  C   C16       1.0  0.10692829011821908  0.8559480582701154  0.7742289485748441  1.0000
  C   C17       1.0  0.25172757731451156  0.3162607577122003  0.18024619587754384  1.0000
  C   C18       1.0  0.25818487192010753  0.18087682511490744  0.316101506039061  1.0000
  C   C19       1.0  0.4059965259742809  0.2518958363776277  0.18887899945053013  1.0000
  C   C20       1.0  0.10518510686992498  0.24777060234351467  0.3068360804198846  1.0000
  C   C21       1.0  0.4071772935750531  0.18656930570848118  0.25416381336794547  1.0000
  C   C22       1.0  0.09931496657298308  0.312743756719854  0.24176276568805824  1.0000
  C   C23       1.0  0.5979130423999379  0.21563633960077772  0.14972226012825723  1.0000
  C   C24       1.0  0.5984400219928004  0.14109825353312996  0.22331245488485504  1.0000
  C   C25       1.0  0.2490498755720054  0.32450504139814024  0.8126438610454085  1.0000
  C   C26       1.0  0.25726193964160154  0.18777287421192312  0.6783049874330017  1.0000
  C   C27       1.0  0.0988245493759337  0.2579607426884536  0.8033533265564398  1.0000
  C   C28       1.0  0.4063280746827758  0.25677693737949164  0.6882168824747692  1.0000
  C   C29       1.0  0.10440081011847721  0.1921511857118645  0.7386004314107095  1.0000
  C   C30       1.0  0.4051177377312313  0.3224717449611631  0.7527055134026737  1.0000
  C   C31       1.0  0.9070725906310386  0.21950283093397624  0.841072999826096  1.0000
  C   C32       1.0  0.9130630382761706  0.14494782986714233  0.7675492447710821  1.0000
  C   C33       1.0  0.7503425529266322  0.6779620289946211  0.1859721491570595  1.0000
  C   C34       1.0  0.7572718155345797  0.812056275449464  0.3228380072841404  1.0000
  C   C35       1.0  0.9048144996619953  0.742490774183537  0.19517125768160065  1.0000
  C   C36       1.0  0.6041570608827058  0.7449622838799  0.31315978142089307  1.0000
  C   C37       1.0  0.9062604943152335  0.8072195063960167  0.2609092401834373  1.0000
  C   C38       1.0  0.5978855040911881  0.680599945887259  0.24748925856672332  1.0000
  C   C39       1.0  0.0961519426172117  0.7797675850711269  0.15600086553325093  1.0000
  C   C40       1.0  0.09713236390683726  0.853552312755859  0.23024303400012505  1.0000
  O   O1        1.0  0.9351454068008636  0.9158136241476597  0.41004575876737437  1.0000
  O   O2        1.0  0.5861503519479639  0.9282393985207091  0.5971303329295805  1.0000
  O   O3        1.0  0.42299732168999066  0.0973427582249968  0.5749069001151168  1.0000
  O   O4        1.0  0.098351805071637  0.0895628771432726  0.4200688695104232  1.0000
  O   O5        1.0  0.08784925157006998  0.07899256885117721  0.5939790260316042  1.0000
  O   O6        1.0  0.43612905876386066  0.07732413109684438  0.4032920714061702  1.0000
  O   O7        1.0  0.5963042363267802  0.9052326588300089  0.4247796404119341  1.0000
  O   O8        1.0  0.9229593479316733  0.9098568130522439  0.583541165902332  1.0000
  O   O9        1.0  0.26221640179112166  0.9440502942837411  0.5016521410405728  1.0000
  O   O10       1.0  0.7630389694407285  0.056491944260130794  0.49778896971274367  1.0000
  O   O11       1.0  0.9089283453984435  0.5934466783581198  0.0783166196167784  1.0000
  O   O12       1.0  0.5874411589849372  0.5949984290685534  0.9218675598437326  1.0000
  O   O13       1.0  0.4191952310661831  0.43213176538978365  0.899631234105392  1.0000
  O   O14       1.0  0.07176355771255058  0.42091168923845856  0.09380774435808799  1.0000
  O   O15       1.0  0.0873625238120965  0.4069418166102921  0.921523508148695  1.0000
  O   O16       1.0  0.4070885698580681  0.40209356858257905  0.07198308502375277  1.0000
  O   O17       1.0  0.5718752247368996  0.5755412440225669  0.09581693986081055  1.0000
  O   O18       1.0  0.9237871811253199  0.5769924410632539  0.9062040797736582  1.0000
  O   O19       1.0  0.24671877291791586  0.5575495645490491  0.0028000437922912993  1.0000
  O   O20       1.0  0.7454537018805141  0.44314220634683466  0.9993178216810104  1.0000
  F   F1        1.0  0.44415573035713857  0.7533863990872189  0.6377066804838449  1.0000
  F   F2        1.0  0.9542561651377567  0.25227538628352153  0.3648195422172406  1.0000
  F   F3        1.0  0.5599387444838584  0.26230502236347764  0.6317426940936173  1.0000
  F   F4        1.0  0.4536701337069075  0.7398225077567556  0.3712595520467942  1.0000
