data_image0
_chemical_formula_structural       Cu4H64C46N16Cl4
_chemical_formula_sum              "Cu4 H64 C46 N16 Cl4"
_cell_length_a       10.26456323001954
_cell_length_b       10.28726190217003
_cell_length_c       15.037
_cell_angle_alpha    102.00106469159635
_cell_angle_beta     102.02799978738862
_cell_angle_gamma    99.06399677851137

_space_group_name_H-M_alt    "P 1"
_space_group_IT_number       1

loop_
  _space_group_symop_operation_xyz
  'x, y, z'

loop_
  _atom_site_type_symbol
  _atom_site_label
  _atom_site_symmetry_multiplicity
  _atom_site_fract_x
  _atom_site_fract_y
  _atom_site_fract_z
  _atom_site_occupancy
  Cu  Cu1       1.0  0.0406773741867781  0.6380825122900262  0.5310970992359219  1.0000
  Cu  Cu2       1.0  0.3621219655907523  0.9594011352796201  0.9691917428297927  1.0000
  Cu  Cu3       1.0  0.9593243878097513  0.361910743024545  0.46890139393983793  1.0000
  Cu  Cu4       1.0  0.6378743946250722  0.0406043174918338  0.0308110421693613  1.0000
  H   H1        1.0  0.9735388607200832  0.2253561474573544  0.6394401270497313  1.0000
  H   H2        1.0  0.7736468648262331  0.0259073984086839  0.8601303289308434  1.0000
  H   H3        1.0  0.026450948149175677  0.7746371078572165  0.3605619859913106  1.0000
  H   H4        1.0  0.2263489940838923  0.9740909391795896  0.13987469774613712  1.0000
  H   H5        1.0  0.1327347169538484  0.1833247275108079  0.6401483219680628  1.0000
  H   H6        1.0  0.8158942951910718  0.8671842954636375  0.859645801336008  1.0000
  H   H7        1.0  0.8672590093313912  0.8166776758964218  0.35985697970780006  1.0000
  H   H8        1.0  0.1841119524869228  0.1328160750341141  0.14036032731132053  1.0000
  H   H9        1.0  0.0658394429980973  0.1854470850075671  0.7405705373886705  1.0000
  H   H10       1.0  0.8136284738667358  0.9336909290904599  0.7590926963615204  1.0000
  H   H11       1.0  0.9341495836914576  0.8145471867617501  0.259432274004503  1.0000
  H   H12       1.0  0.1863621171822274  0.06630130976937208  0.2409087183273826  1.0000
  H   H13       1.0  0.7601725760902553  0.009941943810240196  0.5454537002984808  1.0000
  H   H14       1.0  0.989310650611877  0.2390142497963978  0.9539311420759092  1.0000
  H   H15       1.0  0.23982057541205387  0.9900482621401138  0.4545444643027425  1.0000
  H   H16       1.0  0.010682012619653807  0.7609973017034903  0.046059349074774034  1.0000
  H   H17       1.0  0.7401267038080589  0.6119657242049354  0.46463023968878053  1.0000
  H   H18       1.0  0.3882082861647618  0.2591796953798066  0.03508357164163559  1.0000
  H   H19       1.0  0.2598785412585372  0.38802041592646214  0.5353743870777734  1.0000
  H   H20       1.0  0.6117866501286571  0.7408237244821619  0.9649160615144938  1.0000
  H   H21       1.0  0.6409147778200364  0.7350604261073528  0.4435213715822074  1.0000
  H   H22       1.0  0.26479551959786113  0.3581366465755735  0.056112919364089506  1.0000
  H   H23       1.0  0.35908328067474565  0.2649246975693059  0.5564807582426924  1.0000
  H   H24       1.0  0.7351978523361425  0.6418688061958804  0.943887445470047  1.0000
  H   H25       1.0  0.6448262035734231  0.6733392613956326  0.5453118412161544  1.0000
  H   H26       1.0  0.32669670038949045  0.3542314274651587  0.9543382996872226  1.0000
  H   H27       1.0  0.3551762671255858  0.32664789519050424  0.454694530564261  1.0000
  H   H28       1.0  0.6733044998590287  0.6457780911252513  0.04566242704731849  1.0000
  H   H29       1.0  0.4636535479261141  0.0824781869537077  0.7650117456093782  1.0000
  H   H30       1.0  0.9176529692830184  0.5373640450301451  0.7348755462598434  1.0000
  H   H31       1.0  0.5363539032425919  0.9175089696324291  0.23499067946418958  1.0000
  H   H32       1.0  0.0823399013452857  0.4626342925581284  0.26512506517330797  1.0000
  H   H33       1.0  0.37946388828284233  0.1692895204632876  0.6864726644381776  1.0000
  H   H34       1.0  0.8303181345808781  0.621205297789956  0.8132021491002703  1.0000
  H   H35       1.0  0.6205481220445535  0.8307098335797248  0.313535469412848  1.0000
  H   H36       1.0  0.1696785799861829  0.3787971056172807  0.18680158258300855  1.0000
  H   H37       1.0  0.5416859766766464  0.1340429359050788  0.6795965777848494  1.0000
  H   H38       1.0  0.8654621375939442  0.4592413666365899  0.8200471644577192  1.0000
  H   H39       1.0  0.4583196962184175  0.8659452371357901  0.3204050738929141  1.0000
  H   H40       1.0  0.1345387752631098  0.5407620532253787  0.17996063415979796  1.0000
  H   H41       1.0  0.5250380276032445  0.90966498840519  0.5393177733344103  1.0000
  H   H42       1.0  0.0904090034904783  0.4757485916113637  0.9607100827620627  1.0000
  H   H43       1.0  0.4749644496132247  0.0903363985473007  0.46067931821107794  1.0000
  H   H44       1.0  0.9095919763263538  0.5242456801579465  0.039285118608226796  1.0000
  H   H45       1.0  0.4023100923366555  0.5940303803207029  0.4513281349263707  1.0000
  H   H46       1.0  0.40632599447423695  0.598085018277871  0.04885909983348572  1.0000
  H   H47       1.0  0.5976920305285702  0.40597405599600467  0.5486693399875336  1.0000
  H   H48       1.0  0.593676195350767  0.40191026994618534  0.9511324280958746  1.0000
  H   H49       1.0  0.3308451119985207  0.6819425343135206  0.37031004497593767  1.0000
  H   H50       1.0  0.31843255611510557  0.6696353003237049  0.12990661693758201  1.0000
  H   H51       1.0  0.6691566565154689  0.31806495136741114  0.6296858182275785  1.0000
  H   H52       1.0  0.6815730498201802  0.3303620208098295  0.870090341304426  1.0000
  H   H53       1.0  0.2217334967255766  0.5758754822126733  0.4166022967752384  1.0000
  H   H54       1.0  0.4248924785303744  0.778300410739554  0.08355951870334621  1.0000
  H   H55       1.0  0.7782647822008998  0.4241248882850783  0.583390062809734  1.0000
  H   H56       1.0  0.5751143374130833  0.22169792684871936  0.9164350961502735  1.0000
  H   H57       1.0  0.20884872088624454  0.0206208173068489  0.7261941874583826  1.0000
  H   H58       1.0  0.978917021144646  0.7912175175732585  0.7738757140532826  1.0000
  H   H59       1.0  0.7911493441259906  0.9793785367361635  0.27380531239427347  1.0000
  H   H60       1.0  0.021082113438765804  0.2087869187434492  0.22612532593201715  1.0000
  H   H61       1.0  0.1566085943590423  0.7136793006551088  0.7083887108987312  1.0000
  H   H62       1.0  0.2865085817369888  0.8431227788624794  0.791608315463968  1.0000
  H   H63       1.0  0.843390680661372  0.28632106984264266  0.29161443080194266  1.0000
  H   H64       1.0  0.7134923311200723  0.15688064099949628  0.2083948279696699  1.0000
  C   C1        1.0  0.039023512272635195  0.15869501271008343  0.6632610001180625  1.0000
  C   C2        1.0  0.8404953440349274  0.9605903873252187  0.8364031795481497  1.0000
  C   C3        1.0  0.9609675066047957  0.8412992590592339  0.33674076461338853  1.0000
  C   C4        1.0  0.1595015109691431  0.03940795026305469  0.1635993287191653  1.0000
  C   C5        1.0  0.9690992603672511  0.014059601961271498  0.6229171588832685  1.0000
  C   C6        1.0  0.985390002620413  0.0304865270116039  0.876739333464272  1.0000
  C   C7        1.0  0.030902715543518863  0.9859346698080386  0.377084834445114  1.0000
  C   C8        1.0  0.014613116338750785  0.9695179093051108  0.12326160827637984  1.0000
  C   C9        1.0  0.8375965313834256  0.9553830896930862  0.5689622535008071  1.0000
  C   C10       1.0  0.04405889142248041  0.1617626731148789  0.9305711442023538  1.0000
  C   C11       1.0  0.1623960518534133  0.044609149166746  0.4310374495000957  1.0000
  C   C12       1.0  0.9559363992221748  0.8382376973828726  0.06942145532266858  1.0000
  C   C13       1.0  0.8265404023516894  0.8131170349428131  0.5508256173730572  1.0000
  C   C14       1.0  0.18665967555204327  0.17289488542544967  0.948834051540409  1.0000
  C   C15       1.0  0.1734634922697325  0.1868721545528018  0.44917592593517247  1.0000
  C   C16       1.0  0.8133336963819675  0.8271105673459971  0.051160328057307025  1.0000
  C   C17       1.0  0.706797595815793  0.7020286964272202  0.49807476857553473  1.0000
  C   C18       1.0  0.2979314392658168  0.2924258970100411  0.0015895100523266989  1.0000
  C   C19       1.0  0.2932060848913878  0.2979594766136486  0.5019305898690263  1.0000
  C   C20       1.0  0.7020659170439458  0.7075795557614128  0.9984094264846279  1.0000
  C   C21       1.0  0.4438222793413047  0.0938990724103945  0.6925272039180754  1.0000
  C   C22       1.0  0.9058632111085885  0.5569592595045094  0.8072760315550342  1.0000
  C   C23       1.0  0.5561836809452174  0.9060951993589227  0.3074780162970044  1.0000
  C   C24       1.0  0.0941364917402936  0.44304314390272026  0.1927248000831199  1.0000
  C   C25       1.0  0.3803586465510307  0.9605995354178773  0.6242055223128775  1.0000
  C   C26       1.0  0.03930233346049762  0.620208155690186  0.875835077615051  1.0000
  C   C27       1.0  0.6196411232576224  0.039393719896700895  0.3757920224458005  1.0000
  C   C28       1.0  0.9607008589758976  0.3798013629002241  0.12416726256284255  1.0000
  C   C29       1.0  0.4279037204254053  0.8829596730257379  0.5555971811950827  1.0000
  C   C30       1.0  0.1170758952853461  0.5727610648898462  0.9444777058646423  1.0000
  C   C31       1.0  0.5720913563050161  0.1170396810172747  0.4444005635188192  1.0000
  C   C32       1.0  0.8829265819311232  0.42724032206264434  0.05551739060204141  1.0000
  C   C33       1.0  0.3251925159686593  0.764484757915838  0.5125451412834893  1.0000
  C   C34       1.0  0.235737158140978  0.6753071177719363  0.9876338449465794  1.0000
  C   C35       1.0  0.6748028481532273  0.23552069485561586  0.487452181810113  1.0000
  C   C36       1.0  0.7642633268876082  0.3246942691805543  0.01236096812928624  1.0000
  C   C37       1.0  0.3198550166823182  0.6476595488486652  0.433460245633647  1.0000
  C   C38       1.0  0.3527874806065938  0.6805103495851057  0.06674429902354721  1.0000
  C   C39       1.0  0.6801409157050387  0.3523438710133035  0.5665381991653506  1.0000
  C   C40       1.0  0.6472145687814006  0.3194890044579068  0.9332504474005817  1.0000
  C   C41       1.0  0.16909993063948286  0.9152412591078798  0.6849828589987441  1.0000
  C   C42       1.0  0.08455684271928018  0.8309507333530631  0.8150600023234987  1.0000
  C   C43       1.0  0.8308981343727596  0.0847580949351325  0.3150166408539122  1.0000
  C   C44       1.0  0.9154407275047234  0.1690557358731297  0.1849437644186125  1.0000
  C   C45       1.0  0.1803181118404709  0.8196091313660858  0.7500101995816238  1.0000
  C   C46       1.0  0.8196801670859984  0.1803912391316729  0.24999147037110703  1.0000
  N   N1        1.0  0.220186892251121  0.7679854280397933  0.5530198344150818  1.0000
  N   N2        1.0  0.23217078820940878  0.7801727203703094  0.9472229914752789  1.0000
  N   N3        1.0  0.7798071883853623  0.2320139260032192  0.44697776860341076  1.0000
  N   N4        1.0  0.7678277781085328  0.2198337488558835  0.052775596752091744  1.0000
  N   N5        1.0  0.2546487151328591  0.8881405428346341  0.619834366142243  1.0000
  N   N6        1.0  0.1117851790743387  0.7457453983324029  0.880334027629168  1.0000
  N   N7        1.0  0.7453489220509155  0.11185677829890037  0.3801654486941218  1.0000
  N   N8        1.0  0.8882150250802425  0.25426412025800715  0.119667887462505  1.0000
  N   N9        1.0  0.9453531710429671  0.7841440090388117  0.590654693330663  1.0000
  N   N10       1.0  0.2158366778835443  0.0543366210268843  0.9092204908821631  1.0000
  N   N11       1.0  0.05465079705567889  0.2158502627305054  0.4093489134410718  1.0000
  N   N12       1.0  0.7841620288713997  0.9456657823803524  0.09077687392924362  1.0000
  N   N13       1.0  0.030103991917073414  0.9079522621685854  0.6353707209629962  1.0000
  N   N14       1.0  0.09180776093717209  0.969666311697125  0.864497161941401  1.0000
  N   N15       1.0  0.9698967739855178  0.09204099314598577  0.3646289605698954  1.0000
  N   N16       1.0  0.9081933658341157  0.0303381246195897  0.13550017127709424  1.0000
  Cl  Cl1       1.0  0.07193550519156837  0.47463659012599624  0.6210562986283892  1.0000
  Cl  Cl2       1.0  0.5252716927911507  0.9280180951874896  0.8787297334501645  1.0000
  Cl  Cl3       1.0  0.9280631280861442  0.5253607310075381  0.3789429928771213  1.0000
  Cl  Cl4       1.0  0.4747263722210916  0.0719812588555229  0.1212724265075593  1.0000
