data_image0
_chemical_formula_structural       FeHg2H28C34S6N14
_chemical_formula_sum              "Fe1 Hg2 H28 C34 S6 N14"
_cell_length_a       8.390866304362667
_cell_length_b       9.324788840707642
_cell_length_c       15.035845166189693
_cell_angle_alpha    101.29069771220851
_cell_angle_beta     101.82665503071615
_cell_angle_gamma    91.86347329239406

_space_group_name_H-M_alt    "P 1"
_space_group_IT_number       1

loop_
  _space_group_symop_operation_xyz
  'x, y, z'

loop_
  _atom_site_type_symbol
  _atom_site_label
  _atom_site_symmetry_multiplicity
  _atom_site_fract_x
  _atom_site_fract_y
  _atom_site_fract_z
  _atom_site_occupancy
  Fe  Fe1       1.0  0.007453456962110717  0.49689900724443004  0.5124262642590764  1.0000
  Hg  Hg1       1.0  0.5842421816053404  0.9212236481177956  0.6077302412335045  1.0000
  Hg  Hg2       1.0  0.4178129520003252  0.0807441994471105  0.39261724831816036  1.0000
  H   H1        1.0  0.2037902053009191  0.6899868390775622  0.6846329381250699  1.0000
  H   H2        1.0  0.7977357319536651  0.3078708302143198  0.309305207291878  1.0000
  H   H3        1.0  0.342607659804017  0.6633030635571231  0.8412910488837114  1.0000
  H   H4        1.0  0.6561658350209568  0.3369433780856568  0.1523709754912232  1.0000
  H   H5        1.0  0.9949104141313183  0.2625031838971879  0.6193753180095171  1.0000
  H   H6        1.0  0.9982677508511628  0.736925692524764  0.3789423093765478  1.0000
  H   H7        1.0  0.12048493672087089  0.21892200769261894  0.7736761418247228  1.0000
  H   H8        1.0  0.8729257159848488  0.7834169051490318  0.223822543047234  1.0000
  H   H9        1.0  0.897014006210121  0.8949346414759064  0.7708142596524824  1.0000
  H   H10       1.0  0.1042785893588913  0.10669571628051243  0.23028404075915893  1.0000
  H   H11       1.0  0.009781856542879618  0.7367298673200154  0.8811423855299199  1.0000
  H   H12       1.0  0.9921999505498605  0.2637525590050488  0.11894620754211624  1.0000
  H   H13       1.0  0.5917774271666758  0.4274058112779002  0.7525560591192004  1.0000
  H   H14       1.0  0.4090758914004482  0.5741887430092306  0.2478132213731712  1.0000
  H   H15       1.0  0.4958456824030719  0.5980514178257009  0.64936016096285  1.0000
  H   H16       1.0  0.5049793426872143  0.4041282361541079  0.3515754662047926  1.0000
  H   H17       1.0  0.33265802091220553  0.17649556403687675  0.8957025465638395  1.0000
  H   H18       1.0  0.664671611244387  0.8252274708489297  0.1007783302090246  1.0000
  H   H19       1.0  0.17221793025223062  0.2597682633409804  0.9413537873539894  1.0000
  H   H20       1.0  0.8259264305803169  0.7426682571718713  0.05581722405208469  1.0000
  H   H21       1.0  0.3732730219848648  0.2770684579539803  0.01274035357634767  1.0000
  H   H22       1.0  0.6253619522408728  0.7251626749011849  0.9836448850289088  1.0000
  H   H23       1.0  0.8621752632578037  0.26285454519397417  0.927147104633832  1.0000
  H   H24       1.0  0.13792854520188771  0.7375088048012728  0.0726775772603929  1.0000
  H   H25       1.0  0.8020455678370552  0.264448891594327  0.8054029043228327  1.0000
  H   H26       1.0  0.19732076128554613  0.7363086591274525  0.1944738194021696  1.0000
  H   H27       1.0  0.6671681539190927  0.3177404177987669  0.8797084621499566  1.0000
  H   H28       1.0  0.3332142360145767  0.6836766742969473  0.12068135225104021  1.0000
  C   C1        1.0  0.3261979818878658  0.6356498333028566  0.4846903199272603  1.0000
  C   C2        1.0  0.6768670035940403  0.3615893552417901  0.5250209157960982  1.0000
  C   C3        1.0  0.9190980225002577  0.8160874777411208  0.5632911661243369  1.0000
  C   C4        1.0  0.08626431912791328  0.1794555023130116  0.4438961459072318  1.0000
  C   C5        1.0  0.19147792501122043  0.5863983878740342  0.7062517533669279  1.0000
  C   C6        1.0  0.8082017199595767  0.41243015684300127  0.2883165582184262  1.0000
  C   C7        1.0  0.2681726135269855  0.5705710942735466  0.7941457755433063  1.0000
  C   C8        1.0  0.7302553887537683  0.4289199192611902  0.2004504488294288  1.0000
  C   C9        1.0  0.2501901214360487  0.43614849436691827  0.8215500474110656  1.0000
  C   C10       1.0  0.7473927850791996  0.564741292849902  0.17464523577255867  1.0000
  C   C11       1.0  0.0720903174527692  0.34873316826880085  0.6706231225420964  1.0000
  C   C12       1.0  0.9228902006868649  0.6508146452575544  0.32619712894642566  1.0000
  C   C13       1.0  0.14436502291012226  0.32561452881033404  0.7577943329592075  1.0000
  C   C14       1.0  0.8510409803202137  0.6759974220209557  0.23911048066722881  1.0000
  C   C15       1.0  0.34149754350437433  0.4111246014620633  0.9113533023353214  1.0000
  C   C16       1.0  0.6562567227733922  0.5906711656322798  0.08469670116122775  1.0000
  C   C17       1.0  0.8312270871830661  0.7921038731073226  0.7709623208856728  1.0000
  C   C18       1.0  0.17003421186895198  0.20935412311729348  0.22982753131989853  1.0000
  C   C19       1.0  0.8943194862746537  0.7036029516622904  0.8316457699160013  1.0000
  C   C20       1.0  0.10733710793412143  0.2972507590465839  0.16868389040282492  1.0000
  C   C21       1.0  0.8081753687167322  0.5698896171897729  0.8281178650103413  1.0000
  C   C22       1.0  0.1932647806436947  0.4310188889804464  0.1721137307120486  1.0000
  C   C23       1.0  0.6635107184780225  0.5302556063343858  0.7603130246481201  1.0000
  C   C24       1.0  0.33759230745136654  0.4712415358266782  0.24014578911288004  1.0000
  C   C25       1.0  0.6082269488513318  0.6259299154671893  0.7024271044551824  1.0000
  C   C26       1.0  0.3927427267238741  0.376015251790804  0.2983801035639431  1.0000
  C   C27       1.0  0.8666489893508141  0.4764379279463001  0.894946928573333  1.0000
  C   C28       1.0  0.134489033608034  0.5240593399096838  0.1050913452029434  1.0000
  C   C29       1.0  0.30326173162681863  0.2734918908204306  0.94246688517336  1.0000
  C   C30       1.0  0.6947160127847525  0.7285505783386127  0.054027237138590985  1.0000
  C   C31       1.0  0.7968196320827017  0.3209484992291607  0.8760303077321083  1.0000
  C   C32       1.0  0.2033776920023698  0.6798254055632285  0.1239768532893351  1.0000
  C   C33       1.0  0.32732496135052  0.9912142113808146  0.7424921631998203  1.0000
  C   C34       1.0  0.6718186963440756  0.005893527767440799  0.2575339183583978  1.0000
  S   S1        1.0  0.4888219344758369  0.7104212992224673  0.4616935702698655  1.0000
  S   S2        1.0  0.5049249518523669  0.28982473877447756  0.5391440847709746  1.0000
  S   S3        1.0  0.8696785436923944  0.9867983335161553  0.5822028012023851  1.0000
  S   S4        1.0  0.13063421028287078  0.008836382183247301  0.4142257985121915  1.0000
  S   S5        1.0  0.41155961784031103  0.09482629745031797  0.6834717431188579  1.0000
  S   S6        1.0  0.5853025161256511  0.9031609344277953  0.3161025727446899  1.0000
  N   N1        1.0  0.2104964659626205  0.5763992457635326  0.49872988803796403  1.0000
  N   N2        1.0  0.7992648697361987  0.4194325046243534  0.5180279217720454  1.0000
  N   N3        1.0  0.9520914439411926  0.6931091583518165  0.5492132536763918  1.0000
  N   N4        1.0  0.05706363027614711  0.3023629071028466  0.4659969461002333  1.0000
  N   N5        1.0  0.09773083598599899  0.47583566604202326  0.6433140763503218  1.0000
  N   N6        1.0  0.899794400047121  0.5225943458249275  0.3507977838867831  1.0000
  N   N7        1.0  0.6890752632029303  0.7550006466869803  0.7083254851044246  1.0000
  N   N8        1.0  0.31186118219226705  0.24706567344659902  0.29270681759046374  1.0000
  N   N9        1.0  0.4553962372897614  0.5139407870598446  0.9566348875757812  1.0000
  N   N10       1.0  0.5423156322993917  0.4881938985688379  0.039269564172499764  1.0000
  N   N11       1.0  0.97502893113149  0.5424775776098583  0.9680484128408511  1.0000
  N   N12       1.0  0.026371628038873503  0.4576698543813507  0.0319367056161113  1.0000
  N   N13       1.0  0.2618852955730588  0.9270923943795638  0.7869807783345166  1.0000
  N   N14       1.0  0.738193760830228  0.0693903120126791  0.21314315613904716  1.0000
