data_image0
_chemical_formula_structural       Zn8H36C60O26
_chemical_formula_sum              "Zn8 H36 C60 O26"
_cell_length_a       18.25292098575866
_cell_length_b       18.22596740469918
_cell_length_c       18.23120042198468
_cell_angle_alpha    119.49557066985628
_cell_angle_beta     120.22283189471474
_cell_angle_gamma    90.03345159710656

_space_group_name_H-M_alt    "P 1"
_space_group_IT_number       1

loop_
  _space_group_symop_operation_xyz
  'x, y, z'

loop_
  _atom_site_type_symbol
  _atom_site_label
  _atom_site_symmetry_multiplicity
  _atom_site_fract_x
  _atom_site_fract_y
  _atom_site_fract_z
  _atom_site_occupancy
  Zn  Zn1       1.0  0.9611085046029333  0.0487449118024372  0.9016680411016653  1.0000
  Zn  Zn2       1.0  0.13839410164931823  0.050620274345149596  0.08128829564430624  1.0000
  Zn  Zn3       1.0  0.9620321222244429  0.8757929520218964  0.9059117513055456  1.0000
  Zn  Zn4       1.0  0.9636256860129822  0.051833307022675995  0.08108442253425359  1.0000
  Zn  Zn5       1.0  0.5505419544437871  0.4620600950402291  0.08031067216494132  1.0000
  Zn  Zn6       1.0  0.37411154752942377  0.46333956704371804  0.903238118944266  1.0000
  Zn  Zn7       1.0  0.5499647297222766  0.4641759996280043  0.9047220487687044  1.0000
  Zn  Zn8       1.0  0.5502105047948193  0.637944815206488  0.08136809274905935  1.0000
  H   H1        1.0  0.11577534301419233  0.29015286330797346  0.9466601645874704  1.0000
  H   H2        1.0  0.2929705211424931  0.4133800302947677  0.11427199825622131  1.0000
  H   H3        1.0  0.33582375114959734  0.2852371244083187  0.16237289506458547  1.0000
  H   H4        1.0  0.39503100605843855  0.21856435016423598  0.031501365556749726  1.0000
  H   H5        1.0  0.2178314619610404  0.09526233086942429  0.8638418221592019  1.0000
  H   H6        1.0  0.17488172043034927  0.22340769245440129  0.815669130950795  1.0000
  H   H7        1.0  0.8495998941932755  0.894444708916289  0.5511842230738109  1.0000
  H   H8        1.0  0.8459510795602654  0.7202047823755959  0.42155805690780573  1.0000
  H   H9        1.0  0.8555374697310897  0.676737871540048  0.555879843089528  1.0000
  H   H10       1.0  0.6648774945141442  0.6129869267748304  0.4337155377116348  1.0000
  H   H11       1.0  0.668516065761523  0.7872128675056517  0.563333708066921  1.0000
  H   H12       1.0  0.658926752776985  0.8305850339708911  0.4288817881021529  1.0000
  H   H13       1.0  0.7191637365318473  0.16256722684842367  0.8144470928210057  1.0000
  H   H14       1.0  0.5947576749343497  0.1693445752247769  0.8670811182193532  1.0000
  H   H15       1.0  0.7219998054460605  0.1591682201639698  0.033991356175363405  1.0000
  H   H16       1.0  0.7914608247518375  0.34882695415608106  0.164357213170682  1.0000
  H   H17       1.0  0.915797859818575  0.3419421472085417  0.1115701066408974  1.0000
  H   H18       1.0  0.7886218906762184  0.352192909558866  0.9447735939049551  1.0000
  H   H19       1.0  0.3359090855686377  0.8946148961539746  0.17323156074466084  1.0000
  H   H20       1.0  0.2916644156530596  0.717265327439854  0.12003255715327998  1.0000
  H   H21       1.0  0.11533141424418862  0.6775236713512952  0.9529249839398019  1.0000
  H   H22       1.0  0.17563128472365017  0.6188413763593771  0.8231748027763004  1.0000
  H   H23       1.0  0.21987356503937167  0.7962731756824655  0.8763465871573716  1.0000
  H   H24       1.0  0.39634260201088983  0.8360790997409635  0.04356956964087998  1.0000
  H   H25       1.0  0.33693646865014415  0.2946390045580287  0.4310479238023959  1.0000
  H   H26       1.0  0.29300653283541334  0.42080705568034904  0.5615268767204711  1.0000
  H   H27       1.0  0.11650346671580546  0.2962786479759743  0.42964585140910583  1.0000
  H   H28       1.0  0.17715230962265593  0.22891635239903954  0.5538176636405227  1.0000
  H   H29       1.0  0.2210426821285054  0.10260326844796448  0.42327912364171283  1.0000
  H   H30       1.0  0.39752268275933034  0.22727010039260157  0.5551669011541236  1.0000
  H   H31       1.0  0.8527095160160201  0.6801870788445538  0.9501911603221133  1.0000
  H   H32       1.0  0.8465459251827456  0.7194545300693918  0.11849488555878207  1.0000
  H   H33       1.0  0.8557764443900527  0.8969583976519927  0.17247542162559884  1.0000
  H   H34       1.0  0.6648574583082479  0.8386869171280651  0.044667214358973646  1.0000
  H   H35       1.0  0.6710545286673764  0.7992160609868434  0.8762295014197007  1.0000
  H   H36       1.0  0.6617983039888033  0.6216346298970875  0.8224318646716002  1.0000
  C   C1        1.0  0.14571854577535256  0.147095563122086  0.9924157818413165  1.0000
  C   C2        1.0  0.20305961346660692  0.20555381268832915  0.9931517607166642  1.0000
  C   C3        1.0  0.1781506565537186  0.2747503509830835  0.965330595518914  1.0000
  C   C4        1.0  0.27548550207041  0.34194370119997314  0.058787227576381336  1.0000
  C   C5        1.0  0.3008280047179853  0.2722080538624281  0.08562005315098284  1.0000
  C   C6        1.0  0.33260817582936414  0.23388193368821666  0.012764680736374594  1.0000
  C   C7        1.0  0.23528641944683676  0.16668841581793706  0.9193007283338018  1.0000
  C   C8        1.0  0.20995894935167317  0.23646947880749986  0.8924578193314618  1.0000
  C   C9        1.0  0.3077142586103677  0.3030720163590956  0.984941061497331  1.0000
  C   C10       1.0  0.3653364151054603  0.36172706524533266  0.9861971598438403  1.0000
  C   C11       1.0  0.8701103803084608  0.8645319306530793  0.711870430189322  1.0000
  C   C12       1.0  0.8137171076995671  0.8066557078605712  0.5972865193050296  1.0000
  C   C13       1.0  0.80814430535856  0.8315703183169489  0.5241734648473724  1.0000
  C   C14       1.0  0.8073309149434778  0.7358499685656168  0.45455526917538686  1.0000
  C   C15       1.0  0.8114226808471232  0.7103711348770502  0.5267525273739437  1.0000
  C   C16       1.0  0.7063193790176713  0.6758420330077469  0.4606772679409588  1.0000
  C   C17       1.0  0.7071283555689121  0.7715773057094707  0.5303169594768206  1.0000
  C   C18       1.0  0.7030820441572062  0.7970626393384633  0.4581623410936401  1.0000
  C   C19       1.0  0.7007598391763993  0.7008017144482818  0.3875728369310707  1.0000
  C   C20       1.0  0.6439651337888679  0.6439919114136213  0.2729190943073616  1.0000
  C   C21       1.0  0.8610395892934337  0.1413484344614133  0.9842614306679425  1.0000
  C   C22       1.0  0.8033457177800829  0.19868841424140976  0.9840766440800125  1.0000
  C   C23       1.0  0.7345663486791311  0.20435719220937185  0.8919556480516423  1.0000
  C   C24       1.0  0.6668182116836547  0.20674019635203675  0.9211975802460657  1.0000
  C   C25       1.0  0.7362210131219061  0.20258080951639804  0.014308818766260148  1.0000
  C   C26       1.0  0.7760216700726519  0.3069885108442206  0.086829062705661  1.0000
  C   C27       1.0  0.8437399073555484  0.30457502226398236  0.057537287668601785  1.0000
  C   C28       1.0  0.7743182788805145  0.30881385581416504  0.964466702289059  1.0000
  C   C29       1.0  0.7071898799042275  0.3126218602645989  0.9947388598171117  1.0000
  C   C30       1.0  0.6493390158504655  0.36975754005371186  0.9950429801426424  1.0000
  C   C31       1.0  0.14657871340949674  0.8674178100510587  0.002060041428954674  1.0000
  C   C32       1.0  0.20374136445315838  0.8096435178280215  0.0033408147706524135  1.0000
  C   C33       1.0  0.3010432276719045  0.8329629563395925  0.0956690515633056  1.0000
  C   C34       1.0  0.2750091517015535  0.7357240070656061  0.06607836536065284  1.0000
  C   C35       1.0  0.17807417592908342  0.7120968027085366  0.9728433214148139  1.0000
  C   C36       1.0  0.21057062893470407  0.6805611507827933  0.9006956796858745  1.0000
  C   C37       1.0  0.23668360972473584  0.7777271088905946  0.9302489352395896  1.0000
  C   C38       1.0  0.3335465611393574  0.8015224063438848  0.023554379157033387  1.0000
  C   C39       1.0  0.30796829580717855  0.7039411583738155  0.9929876149237273  1.0000
  C   C40       1.0  0.3654265003698143  0.6464159438517427  0.992203073652803  1.0000
  C   C41       1.0  0.14724690403716784  0.15422264962828788  0.2729736241398371  1.0000
  C   C42       1.0  0.20461815482929072  0.21304728341955576  0.38748489564240884  1.0000
  C   C43       1.0  0.30199991573068985  0.28050121146860346  0.4592176703151196  1.0000
  C   C44       1.0  0.27625316075908307  0.3494003407359683  0.5293013520628591  1.0000
  C   C45       1.0  0.17928541535746947  0.2814188543719069  0.45842766936768004  1.0000
  C   C46       1.0  0.21198074080795953  0.24291402443684967  0.5254712082456551  1.0000
  C   C47       1.0  0.23779416499159825  0.17400939620223  0.455468868071307  1.0000
  C   C48       1.0  0.3346942058778453  0.2419964651231651  0.52622617603663  1.0000
  C   C49       1.0  0.30937784786604555  0.31032212370705275  0.5972354789101715  1.0000
  C   C50       1.0  0.3666012046076474  0.36807906661019263  0.711862381026215  1.0000
  C   C51       1.0  0.8714534975363151  0.8694364962421373  0.0001049527256639949  1.0000
  C   C52       1.0  0.8154533469163214  0.8122536758661877  0.0019014861644988936  1.0000
  C   C53       1.0  0.8103897189011207  0.7146066398474032  0.9709723757803345  1.0000
  C   C54       1.0  0.8084915281283075  0.7381374721756441  0.06489872749681068  1.0000
  C   C55       1.0  0.8121931621591046  0.8354298743279855  0.09487797385831694  1.0000
  C   C56       1.0  0.7070778905129417  0.8041293934361203  0.023801344639451653  1.0000
  C   C57       1.0  0.7089866240903361  0.7805418823440745  0.9298494884077257  1.0000
  C   C58       1.0  0.7053383765189667  0.6832869324685902  0.8999065496723729  1.0000
  C   C59       1.0  0.7019927131246676  0.7065492791249497  0.9929148053717329  1.0000
  C   C60       1.0  0.6445962081106488  0.648430069204579  0.9924306776051354  1.0000
  O   O1        1.0  0.006366690937412005  0.0069656462992569  0.99236353555996  1.0000
  O   O2        1.0  0.18635933489873935  0.12207826824010229  0.052501825282469425  1.0000
  O   O3        1.0  0.06081696592835331  0.12535704692272273  0.9299910791281364  1.0000
  O   O4        1.0  0.3250118457907192  0.38547544717981447  0.924736976913991  1.0000
  O   O5        1.0  0.4501432748695678  0.3850162486489168  0.05055171790366602  1.0000
  O   O6        1.0  0.8913199607478789  0.8248971481348731  0.7575671635532046  1.0000
  O   O7        1.0  0.8906629690454441  0.9488001123778246  0.7547089350680525  1.0000
  O   O8        1.0  0.624193178447051  0.6850333906227845  0.22887767686000862  1.0000
  O   O9        1.0  0.6214565171905522  0.5594815729901725  0.2283845553605701  1.0000
  O   O10       1.0  0.884780932980334  0.12048739092200826  0.04853165685999279  1.0000
  O   O11       1.0  0.8834792202283026  0.11964583181053708  0.9221396925237573  1.0000
  O   O12       1.0  0.6244698244348612  0.3904078429589147  0.9304832734214373  1.0000
  O   O13       1.0  0.6278000694101564  0.39142728394773474  0.05794186290564337  1.0000
  O   O14       1.0  0.061802365054312226  0.8275773053158488  0.9373933241157032  1.0000
  O   O15       1.0  0.1872575215555302  0.9517327367056863  0.06326847624673337  1.0000
  O   O16       1.0  0.4502505769445833  0.6862534841306026  0.056422372821714195  1.0000
  O   O17       1.0  0.32492198259211597  0.5620969051829334  0.9288312873886184  1.0000
  O   O18       1.0  0.06238694998805271  0.1315179627880667  0.2286169920446923  1.0000
  O   O19       1.0  0.18770032087882527  0.12959712767575124  0.22897127976335702  1.0000
  O   O20       1.0  0.4515189994352086  0.3907766120455135  0.7565980159155147  1.0000
  O   O21       1.0  0.3259012080175979  0.39153442700955304  0.7556433054648366  1.0000
  O   O22       1.0  0.8961391273878548  0.9538357461072876  0.06407193544158224  1.0000
  O   O23       1.0  0.887840483065233  0.8289607549814731  0.9324060862817944  1.0000
  O   O24       1.0  0.6242950655112764  0.5642747745011291  0.9313817888807494  1.0000
  O   O25       1.0  0.6221309942755084  0.6876762867580766  0.05457443757229905  1.0000
  O   O26       1.0  0.5061434763659136  0.506701841197632  0.9923866156875436  1.0000
