data_image0
_chemical_formula_structural       Zn4H28C40N8Cl4O8
_chemical_formula_sum              "Zn4 H28 C40 N8 Cl4 O8"
_cell_length_a       8.56469153035997
_cell_length_b       8.451011597862347
_cell_length_c       15.113572074474089
_cell_angle_alpha    89.99918615416433
_cell_angle_beta     89.99990902229766
_cell_angle_gamma    109.80385694923842

_space_group_name_H-M_alt    "P 1"
_space_group_IT_number       1

loop_
  _space_group_symop_operation_xyz
  'x, y, z'

loop_
  _atom_site_type_symbol
  _atom_site_label
  _atom_site_symmetry_multiplicity
  _atom_site_fract_x
  _atom_site_fract_y
  _atom_site_fract_z
  _atom_site_occupancy
  Zn  Zn1       1.0  0.5175521079420591  0.4136307393455638  0.39624730185806106  1.0000
  Zn  Zn2       1.0  0.4824386549624649  0.08635841136819523  0.8962488789296827  1.0000
  Zn  Zn3       1.0  0.4824484952189749  0.5863621093705477  0.6037534959960953  1.0000
  Zn  Zn4       1.0  0.5175581945564643  0.9136407114505759  0.1037539038718052  1.0000
  H   H1        1.0  0.9236406717113752  0.31154282983213494  0.4719953638367613  1.0000
  H   H2        1.0  0.07635660975653738  0.18846669325746032  0.9720010703343007  1.0000
  H   H3        1.0  0.07637471778769372  0.6884839844349673  0.5280067571905889  1.0000
  H   H4        1.0  0.9236474207482884  0.8115399869981985  0.027997742492694003  1.0000
  H   H5        1.0  0.1321132523497965  0.19386551956293374  0.5268673446317891  1.0000
  H   H6        1.0  0.8678892442919235  0.30614474891152105  0.026876280064705303  1.0000
  H   H7        1.0  0.8679032208170978  0.8061575274323687  0.4731314681253736  1.0000
  H   H8        1.0  0.13211370257571528  0.6938656986852082  0.9731212094338276  1.0000
  H   H9        1.0  0.9288670866599559  0.1743230924766905  0.7911190093541762  1.0000
  H   H10       1.0  0.07114468372579098  0.3256755334625083  0.2911264123719732  1.0000
  H   H11       1.0  0.0711300892054183  0.8256559248087216  0.20887649530069305  1.0000
  H   H12       1.0  0.9288499136376203  0.67432735388514  0.7088730621306567  1.0000
  H   H13       1.0  0.7286549664578815  0.299833991635616  0.735169536596004  1.0000
  H   H14       1.0  0.27134927938895  0.2001625177389315  0.23517249183910144  1.0000
  H   H15       1.0  0.27133553111272596  0.7001424960443858  0.26482993801317184  1.0000
  H   H16       1.0  0.7286428960217107  0.7998365937519342  0.764827644336421  1.0000
  H   H17       1.0  0.16367077477984537  0.1583128315755502  0.8349091452089041  1.0000
  H   H18       1.0  0.8363293186569578  0.34169325418595525  0.3349171603174526  1.0000
  H   H19       1.0  0.83632891452374  0.841691324827714  0.1650890059728383  1.0000
  H   H20       1.0  0.16366945014546266  0.6583046167075892  0.6650816525465899  1.0000
  H   H21       1.0  0.2601232163032847  0.0393314817506862  0.5717136950763191  1.0000
  H   H22       1.0  0.7398942110279236  0.4606749699240782  0.07171686752647591  1.0000
  H   H23       1.0  0.7398860692689979  0.9606664146900104  0.42828710275445303  1.0000
  H   H24       1.0  0.2601034741241719  0.5393266682808433  0.9282826069799415  1.0000
  H   H25       1.0  0.4807200292773927  0.9717769431103562  0.6860706900831419  1.0000
  H   H26       1.0  0.5192815634447285  0.528218379354101  0.186066222139452  1.0000
  H   H27       1.0  0.5192829958013973  0.02821968138338351  0.31393473935372646  1.0000
  H   H28       1.0  0.48071570389734575  0.47178200117259195  0.8139339140290788  1.0000
  C   C1        1.0  0.8112505271154545  0.31229051074781483  0.5992426217112197  1.0000
  C   C2        1.0  0.18875159321129326  0.18770879792714373  0.0992470623516297  1.0000
  C   C3        1.0  0.18875216507818487  0.687708626319889  0.4007575144601888  1.0000
  C   C4        1.0  0.8112445055993333  0.8122915797576766  0.9007530738173559  1.0000
  C   C5        1.0  0.9251154604007752  0.27999963396587185  0.5417136198616321  1.0000
  C   C6        1.0  0.0748835823246381  0.22000389930937567  0.041720537174107605  1.0000
  C   C7        1.0  0.07489458252351976  0.720014600805648  0.458286516246929  1.0000
  C   C8        1.0  0.92511811111293  0.7800027752526476  0.9582789373107516  1.0000
  C   C9        1.0  0.04170784685577899  0.21272095011267572  0.572669183180551  1.0000
  C   C10       1.0  0.9582967139527694  0.28728544163586633  0.0726781996111399  1.0000
  C   C11       1.0  0.9583057016759681  0.787293293214141  0.42732896795578773  1.0000
  C   C12       1.0  0.041704228772133006  0.7127224877823082  0.9273192898981648  1.0000
  C   C13       1.0  0.04440660194767789  0.1753621285287963  0.6626407811006844  1.0000
  C   C14       1.0  0.9556006922187803  0.3246428384056444  0.1626495024661594  1.0000
  C   C15       1.0  0.9556020178061786  0.8246407929509944  0.3373567084256095  1.0000
  C   C16       1.0  0.044398664160276345  0.6753638304825317  0.8373493103626686  1.0000
  C   C17       1.0  0.9303757719961394  0.20510447733011017  0.7211102878195704  1.0000
  C   C18       1.0  0.06963149953812578  0.29489748600556  0.221117275136109  1.0000
  C   C19       1.0  0.0696248311911489  0.7948883714453744  0.2788865400928842  1.0000
  C   C20       1.0  0.9303654348925505  0.705105407035724  0.7788815377086566  1.0000
  C   C21       1.0  0.8153958742684608  0.2743621713395258  0.6893829438664696  1.0000
  C   C22       1.0  0.1846105635260002  0.22563696799501545  0.18938642435341543  1.0000
  C   C23       1.0  0.18460389329003138  0.7256281620596993  0.3106165306841149  1.0000
  C   C24       1.0  0.8153859530946547  0.7743646673680331  0.8106130501534636  1.0000
  C   C25       1.0  0.6892243372916197  0.3873406154361305  0.5645702223278946  1.0000
  C   C26       1.0  0.31077515385534576  0.11266097942072409  0.0645745050965942  1.0000
  C   C27       1.0  0.31077401369640256  0.6126559977692808  0.4354299138552022  1.0000
  C   C28       1.0  0.6892185229850226  0.8873356223677291  0.9354289393730826  1.0000
  C   C29       1.0  0.21803108393066137  0.11417148748403602  0.7798137874482479  1.0000
  C   C30       1.0  0.7819704041059692  0.38583122121092833  0.2798188463471121  1.0000
  C   C31       1.0  0.7819696890101183  0.8858289015781581  0.2201856870619565  1.0000
  C   C32       1.0  0.21802920030773984  0.6141691650192913  0.7201799665066063  1.0000
  C   C33       1.0  0.2703542547696856  0.05026429538501281  0.6430938611046884  1.0000
  C   C34       1.0  0.7296575543022142  0.4497400099801467  0.1430964666679273  1.0000
  C   C35       1.0  0.7296526937397018  0.9497335953719388  0.3569069367269934  1.0000
  C   C36       1.0  0.2703389623053098  0.5502616253532225  0.8569049928097956  1.0000
  C   C37       1.0  0.3799001325779017  0.018437469448691998  0.70046092674405  1.0000
  C   C38       1.0  0.6201046572621606  0.4815638482562008  0.20046071614917346  1.0000
  C   C39       1.0  0.6201025596026142  0.9815616675893326  0.299541194398202  1.0000
  C   C40       1.0  0.3798949471471715  0.5184365379641209  0.7995387583614929  1.0000
  N   N1        1.0  0.3455826808493541  0.058821967722508396  0.7854870055818923  1.0000
  N   N2        1.0  0.6544183143667722  0.4411793136751713  0.28548841331081587  1.0000
  N   N3        1.0  0.6544169235468543  0.9411784184681341  0.2145144538996249  1.0000
  N   N4        1.0  0.34558129003818994  0.5588210725352667  0.7145117228567984  1.0000
  N   N5        1.0  0.16812369343981  0.11188994997489492  0.6941821731103346  1.0000
  N   N6        1.0  0.8318840191594105  0.3881165889423457  0.19418849907907543  1.0000
  N   N7        1.0  0.8318810029053195  0.8881117052911522  0.3058166397363919  1.0000
  N   N8        1.0  0.16811366599706185  0.6118850492724731  0.8058103137703938  1.0000
  Cl  Cl1       1.0  0.3248531950468062  0.1595141984912516  0.4084923477749456  1.0000
  Cl  Cl2       1.0  0.6751493392441859  0.34046833174185315  0.9084937417198733  1.0000
  Cl  Cl3       1.0  0.675157004409172  0.8404723903216651  0.5915071267865458  1.0000
  Cl  Cl4       1.0  0.32484058398470245  0.6595345442185238  0.0915070560984859  1.0000
  O   O1        1.0  0.6961493972981359  0.4229684418526747  0.48221562242660815  1.0000
  O   O2        1.0  0.30384641069794327  0.07703323241405971  0.9822193949574611  1.0000
  O   O3        1.0  0.30385254416096075  0.5770319500217059  0.5177858370539923  1.0000
  O   O4        1.0  0.6961507717367539  0.922963377900011  0.017784049510844103  1.0000
  O   O5        1.0  0.5872076052823303  0.4135215995901192  0.6195095186526417  1.0000
  O   O6        1.0  0.4127943318884348  0.08648087313344632  0.11950996186148191  1.0000
  O   O7        1.0  0.41278347986053626  0.5864636860746231  0.3804906175782747  1.0000
  O   O8        1.0  0.5871910803419595  0.9135119385888688  0.8804941442833754  1.0000
