data_image0
_chemical_formula_structural       Cu4H36C40N4Cl4
_chemical_formula_sum              "Cu4 H36 C40 N4 Cl4"
_cell_length_a       3.730662238081384
_cell_length_b       9.326388240174483
_cell_length_c       25.22521836607508
_cell_angle_alpha    89.9997989504247
_cell_angle_beta     89.99978460374861
_cell_angle_gamma    90.00069523862663

_space_group_name_H-M_alt    "P 1"
_space_group_IT_number       1

loop_
  _space_group_symop_operation_xyz
  'x, y, z'

loop_
  _atom_site_type_symbol
  _atom_site_label
  _atom_site_symmetry_multiplicity
  _atom_site_fract_x
  _atom_site_fract_y
  _atom_site_fract_z
  _atom_site_occupancy
  Cu  Cu1       1.0  0.7352009839979344  0.9810066583722872  0.6357878887121018  1.0000
  Cu  Cu2       1.0  0.2648089068701013  0.5189940671894036  0.1357871096889198  1.0000
  Cu  Cu3       1.0  0.7648188444716482  0.4810084679053477  0.36421315037163987  1.0000
  Cu  Cu4       1.0  0.23518993910606414  0.018993109713662193  0.8642136435534835  1.0000
  H   H1        1.0  0.2956148831864168  0.9099605259899166  0.7151943194119283  1.0000
  H   H2        1.0  0.7044012358292379  0.5900437320981097  0.21519278288326396  1.0000
  H   H3        1.0  0.20438469950757113  0.40996171649378255  0.2848051356100711  1.0000
  H   H4        1.0  0.7956205364075047  0.0900341841640753  0.784807175849366  1.0000
  H   H5        1.0  0.6710322638170467  0.8565686975520633  0.7535919243917563  1.0000
  H   H6        1.0  0.3289776173227708  0.643434122530593  0.2535905487884094  1.0000
  H   H7        1.0  0.8289624736022391  0.35656659005405805  0.2464084826927646  1.0000
  H   H8        1.0  0.17104363914946671  0.1434275319107456  0.746409647171447  1.0000
  H   H9        1.0  0.2623285772207495  0.763168137961742  0.7607262404295482  1.0000
  H   H10       1.0  0.737681141013816  0.7368356863896396  0.2607244937726918  1.0000
  H   H11       1.0  0.2376640227101774  0.263168856971788  0.2392738007667319  1.0000
  H   H12       1.0  0.7623368919594996  0.23682211626741886  0.739274085935044  1.0000
  H   H13       1.0  0.35622302812345913  0.527043896139439  0.7280661911151042  1.0000
  H   H14       1.0  0.643768672550202  0.9729623837198604  0.22806617890117303  1.0000
  H   H15       1.0  0.14374924891524193  0.027043832828091797  0.2719333624436402  1.0000
  H   H16       1.0  0.8562214346032279  0.47295111814074187  0.7719328884547138  1.0000
  H   H17       1.0  0.5340745840546148  0.3614060816764563  0.654374909377168  1.0000
  H   H18       1.0  0.4659175476256793  0.13859427807840063  0.1543734561494645  1.0000
  H   H19       1.0  0.9659122537463604  0.8614092661496145  0.3456258878822566  1.0000
  H   H20       1.0  0.034063359739441516  0.6385916049352219  0.8456247639327827  1.0000
  H   H21       1.0  0.8063217651740687  0.33309505352520563  0.5645639270227605  1.0000
  H   H22       1.0  0.19367777847735113  0.16690616175458928  0.0645630003728002  1.0000
  H   H23       1.0  0.6936856866740087  0.8330917274860569  0.43543849254397315  1.0000
  H   H24       1.0  0.30631736118511554  0.6669072159348418  0.935433597392155  1.0000
  H   H25       1.0  0.0702646711937192  0.4456816557250677  0.483823847000167  1.0000
  H   H26       1.0  0.9297145759604463  0.05431771022863071  0.983823076269708  1.0000
  H   H27       1.0  0.4297332778873583  0.9456808895545807  0.5161779404227076  1.0000
  H   H28       1.0  0.5702632616932419  0.5543284809328527  0.016174946499134497  1.0000
  H   H29       1.0  0.17523113986911204  0.7073405675446481  0.4806300163057315  1.0000
  H   H30       1.0  0.8247601539235064  0.7926568731152134  0.9806305874990642  1.0000
  H   H31       1.0  0.32474910181020533  0.20733691102206112  0.5193708899169778  1.0000
  H   H32       1.0  0.67521662762627  0.29267009579884734  0.019369902193176396  1.0000
  H   H33       1.0  0.9991639939416502  0.8620988541928439  0.5575185920140981  1.0000
  H   H34       1.0  0.0008476842886509002  0.6378994002550089  0.0575190102509993  1.0000
  H   H35       1.0  0.5008335860789686  0.3620985935367429  0.4424814114914284  1.0000
  H   H36       1.0  0.4991519662787169  0.13790867182537883  0.9424819857167391  1.0000
  C   C1        1.0  0.5449568340230614  0.7169969778015428  0.6882058997120809  1.0000
  C   C2        1.0  0.4550545403296056  0.783006465131109  0.188204266479147  1.0000
  C   C3        1.0  0.9550364932745766  0.21699809677297577  0.3117966699239432  1.0000
  C   C4        1.0  0.0449600848436873  0.2829986190009635  0.8117937669295969  1.0000
  C   C5        1.0  0.4363095236039385  0.8164776660922685  0.7317959769717818  1.0000
  C   C6        1.0  0.5637008552683441  0.6835242893850265  0.2317948022125123  1.0000
  C   C7        1.0  0.0636846387473327  0.3164783087133287  0.2682039953164193  1.0000
  C   C8        1.0  0.9363156153070022  0.18351667784905604  0.7682046392592737  1.0000
  C   C9        1.0  0.48759748665965935  0.5676614042229035  0.6925964614155262  1.0000
  C   C10       1.0  0.5123977045274302  0.9323430690812204  0.1925930143101127  1.0000
  C   C11       1.0  0.012392063766512303  0.0676635605147027  0.3074046253492142  1.0000
  C   C12       1.0  0.9875965732355639  0.43233855819717365  0.8074041234010778  1.0000
  C   C13       1.0  0.585319208473905  0.4765043671293085  0.6521964437038577  1.0000
  C   C14       1.0  0.41468637536599573  0.0234949411757768  0.1521967563493689  1.0000
  C   C15       1.0  0.9146844050221575  0.9765008403850292  0.34780499763661515  1.0000
  C   C16       1.0  0.0853152829848725  0.5234914321945043  0.8478031982186492  1.0000
  C   C17       1.0  0.7459060093077882  0.5341553880631197  0.6061376875987534  1.0000
  C   C18       1.0  0.2540938366727659  0.9658413310118519  0.10613554468263689  1.0000
  C   C19       1.0  0.7540873201748753  0.03415793359006611  0.3938655148052206  1.0000
  C   C20       1.0  0.24590738384476651  0.4658422893380634  0.8938598738209506  1.0000
  C   C21       1.0  0.8479997321501997  0.44865008425910013  0.5622126210798228  1.0000
  C   C22       1.0  0.15199450414974083  0.051346864496665  0.062212265755832184  1.0000
  C   C23       1.0  0.6519977041258116  0.9486551044721734  0.437788856261335  1.0000
  C   C24       1.0  0.34801333165925286  0.5513545388343033  0.9377860670870816  1.0000
  C   C25       1.0  0.9964064407605803  0.5110831965263715  0.517833533927984  1.0000
  C   C26       1.0  0.0035793388252969003  0.9889143636491511  0.0178354789065054  1.0000
  C   C27       1.0  0.5035862124806414  0.0110814994404151  0.48216692330118593  1.0000
  C   C28       1.0  0.49640915556150844  0.48892324348382493  0.9821630812012002  1.0000
  C   C29       1.0  0.0537958486938521  0.6606553559140026  0.515910253974404  1.0000
  C   C30       1.0  0.9462033771295  0.839333644802352  0.0159126078156575  1.0000
  C   C31       1.0  0.4462125102767942  0.16066229494312273  0.484088334005861  1.0000
  C   C32       1.0  0.5537935358700992  0.3393499352554982  0.9840917858210502  1.0000
  C   C33       1.0  0.957467278177923  0.7462243079932308  0.5581779405663525  1.0000
  C   C34       1.0  0.042530982514776404  0.753771795686312  0.0581785799200318  1.0000
  C   C35       1.0  0.5425269056890302  0.24622211838314462  0.441823798435081  1.0000
  C   C36       1.0  0.45746938356894873  0.2537765754800035  0.941819887702195  1.0000
  C   C37       1.0  0.799370614927639  0.6857469063033933  0.6038430440570863  1.0000
  C   C38       1.0  0.20063196393955707  0.8142509068542197  0.1038427155467616  1.0000
  C   C39       1.0  0.700635198954224  0.1857491617257168  0.3961583766820382  1.0000
  C   C40       1.0  0.29938625754449083  0.3142510394069689  0.8961572596126998  1.0000
  N   N1        1.0  0.6956391973046011  0.7747122946487793  0.6448392937591834  1.0000
  N   N2        1.0  0.30437048687036145  0.7252883446969491  0.1448374309927303  1.0000
  N   N3        1.0  0.8043692240043826  0.2747133166698248  0.35516161555501197  1.0000
  N   N4        1.0  0.1956451272472819  0.22528727495971168  0.8551618663035397  1.0000
  Cl  Cl1       1.0  0.22915493344277144  0.11761331565743663  0.6285054139986102  1.0000
  Cl  Cl2       1.0  0.7708592328872186  0.3823862183394553  0.1285062338821632  1.0000
  Cl  Cl3       1.0  0.27087628836113714  0.6176152749111665  0.3714932296138045  1.0000
  Cl  Cl4       1.0  0.7291335806974149  0.8823832053916831  0.8714945362606057  1.0000
