data_image0
_chemical_formula_structural       U2NiH34C20N4O14
_chemical_formula_sum              "U2 Ni1 H34 C20 N4 O14"
_cell_length_a       8.430651030456149
_cell_length_b       8.785582280355793
_cell_length_c       10.73056246384265
_cell_angle_alpha    83.85690182558949
_cell_angle_beta     70.59927701724791
_cell_angle_gamma    80.87322519846157

_space_group_name_H-M_alt    "P 1"
_space_group_IT_number       1

loop_
  _space_group_symop_operation_xyz
  'x, y, z'

loop_
  _atom_site_type_symbol
  _atom_site_label
  _atom_site_symmetry_multiplicity
  _atom_site_fract_x
  _atom_site_fract_y
  _atom_site_fract_z
  _atom_site_occupancy
  U   U1        1.0  0.5362061060017423  0.12377034901277992  0.9696303832500489  1.0000
  U   U2        1.0  0.911857932563727  0.9645971046402338  0.10149089912912497  1.0000
  Ni  Ni1       1.0  0.7242668732776211  0.5409098443294269  0.5260714177119822  1.0000
  H   H1        1.0  0.7524245175880893  0.39172967070389575  0.3530134940733305  1.0000
  H   H2        1.0  0.5148918328775524  0.43880638565333635  0.711379691322051  1.0000
  H   H3        1.0  0.6848111645435678  0.695377542320003  0.6995722437580412  1.0000
  H   H4        1.0  0.9293730024843754  0.6506666198900676  0.3419336292553509  1.0000
  H   H5        1.0  0.057181908409354755  0.4476527470672523  0.8490080873306597  1.0000
  H   H6        1.0  0.9049982131128474  0.4191406000792171  0.008722802843706605  1.0000
  H   H7        1.0  0.12642745824742718  0.0937607964248528  0.7826155517772263  1.0000
  H   H8        1.0  0.09436756940846887  0.25163516053252283  0.6693557550840836  1.0000
  H   H9        1.0  0.960678972775689  0.10170892787633082  0.7135891074002954  1.0000
  H   H10       1.0  0.37808628417010226  0.6842063709551809  0.2688646740326135  1.0000
  H   H11       1.0  0.41718379598113114  0.8719977845232451  0.2878767382782144  1.0000
  H   H12       1.0  0.7436376563346628  0.6513710965500794  0.937679601401548  1.0000
  H   H13       1.0  0.5332343698370251  0.7288463765029578  0.9447690376618779  1.0000
  H   H14       1.0  0.5700612534136553  0.5543050884452043  0.03928056402131119  1.0000
  H   H15       1.0  0.6817641436475057  0.19107396643154573  0.6011888458349476  1.0000
  H   H16       1.0  0.6499362332419025  0.15380601404454813  0.45083546591514073  1.0000
  H   H17       1.0  0.44197667840590776  0.3895496988195717  0.46928924169246505  1.0000
  H   H18       1.0  0.3806022030384568  0.28104002180270277  0.6253499526233312  1.0000
  H   H19       1.0  0.23698013331974  0.5392347752049461  0.6953808348035366  1.0000
  H   H20       1.0  0.3402120013561643  0.6361157833709185  0.5426133049336243  1.0000
  H   H21       1.0  0.23540200064449823  0.803683897042717  0.7410468214074513  1.0000
  H   H22       1.0  0.37564047249482263  0.6877344703978566  0.8107474424296015  1.0000
  H   H23       1.0  0.4910641096281622  0.9279021048961128  0.6891214815651736  1.0000
  H   H24       1.0  0.48234173969866134  0.8658181494172298  0.5386639178687601  1.0000
  H   H25       1.0  0.7996023090525809  0.9252373036056413  0.6077395342311787  1.0000
  H   H26       1.0  0.7732249233599618  0.89430364122061  0.45410628349003446  1.0000
  H   H27       1.0  0.07025073992328854  0.7960685846932025  0.4360206296761717  1.0000
  H   H28       1.0  0.0012230903213036619  0.6812928314416099  0.5888939957931498  1.0000
  H   H29       1.0  0.11303117445751096  0.442908656996984  0.49758789022705935  1.0000
  H   H30       1.0  0.208145224445083  0.5464961398107063  0.34577704148811256  1.0000
  H   H31       1.0  0.056841208985531494  0.40790777991736604  0.2336113918288945  1.0000
  H   H32       1.0  0.207215798625235  0.28739305101606044  0.2914505165618593  1.0000
  H   H33       1.0  0.952020583545476  0.1614943226489913  0.3498456726056104  1.0000
  H   H34       1.0  0.9728698703693013  0.21557132381793312  0.49856913986933904  1.0000
  C   C1        1.0  0.7856134700766545  0.3802455404210292  0.8088540066007184  1.0000
  C   C2        1.0  0.9067218864175288  0.263675481016115  0.8651817550904043  1.0000
  C   C3        1.0  0.9998064999816735  0.3607836477079048  0.9244336724307444  1.0000
  C   C4        1.0  0.13082385922729145  0.25997274105992574  0.9741621063535604  1.0000
  C   C5        1.0  0.03103894720532451  0.17202718633252087  0.7498912725349385  1.0000
  C   C6        1.0  0.7076457663227275  0.6613826314249992  0.19657227110646136  1.0000
  C   C7        1.0  0.5995465770331448  0.7616165904471828  0.11844920727877913  1.0000
  C   C8        1.0  0.41701166994229066  0.7924154149677706  0.2150197583408584  1.0000
  C   C9        1.0  0.28939100339354695  0.8667429399574686  0.14813012853702645  1.0000
  C   C10       1.0  0.6115157728589793  0.6676084947524785  0.0026062493174378873  1.0000
  C   C11       1.0  0.6489473492510599  0.24470322354493854  0.5140788604886735  1.0000
  C   C12       1.0  0.48015958471397363  0.3443831116069375  0.5561492245521578  1.0000
  C   C13       1.0  0.3501098909080085  0.5956632869890301  0.6408660902083341  1.0000
  C   C14       1.0  0.3583232650191094  0.7298952843197526  0.7150242487872447  1.0000
  C   C15       1.0  0.4967341664164735  0.8258897497300454  0.6357148037616156  1.0000
  C   C16       1.0  0.801479957846695  0.8368550269292359  0.5418839236292851  1.0000
  C   C17       1.0  0.9679994512722201  0.7332177536356639  0.5016576892185611  1.0000
  C   C18       1.0  0.09703804540089318  0.4885127486467767  0.40228796310270803  1.0000
  C   C19       1.0  0.08370928502608882  0.3597015694918113  0.3246337884960937  1.0000
  C   C20       1.0  0.9496600029989964  0.26039794610916545  0.4055015748658659  1.0000
  N   N1        1.0  0.7770767311630775  0.3473525088478696  0.4399335633902481  1.0000
  N   N2        1.0  0.5016646152890801  0.4782004985304411  0.6199855291532542  1.0000
  N   N3        1.0  0.6678205918799874  0.7370392877098696  0.610595340028695  1.0000
  N   N4        1.0  0.9450043487278847  0.6057898001752166  0.43149824266511416  1.0000
  O   O1        1.0  0.44860204520283287  0.20935860266154555  0.1289718393033397  1.0000
  O   O2        1.0  0.6175927304184583  0.0371584173411179  0.809010022179123  1.0000
  O   O3        1.0  0.7817043930595559  0.041439419014082504  0.2603500802229348  1.0000
  O   O4        1.0  0.04669768015850906  0.8773628005146322  0.9495553612639255  1.0000
  O   O5        1.0  0.6297699599040383  0.35282492736280363  0.8451299153167326  1.0000
  O   O6        1.0  0.8424225318809562  0.4903383027841813  0.732393845472508  1.0000
  O   O7        1.0  0.07203275438342162  0.1675890365840189  0.0737629720242197  1.0000
  O   O8        1.0  0.28789820645927483  0.2678217817713674  0.9169746543521811  1.0000
  O   O9        1.0  0.8097477893769492  0.16409048465911266  0.9642520120425075  1.0000
  O   O10       1.0  0.8401631420281461  0.7175409340754374  0.19796197007988775  1.0000
  O   O11       1.0  0.6642664083173103  0.5347786355376485  0.2501098705317943  1.0000
  O   O12       1.0  0.34604097326206323  0.9436148039507163  0.03841112555044646  1.0000
  O   O13       1.0  0.13372392241932826  0.8508231793080157  0.2017636419577187  1.0000
  O   O14       1.0  0.6656767923631504  0.9036833886371625  0.0722858888465366  1.0000
