data_image0
_chemical_formula_structural       Al4H34C48N6O20
_chemical_formula_sum              "Al4 H34 C48 N6 O20"
_cell_length_a       6.665211773814736
_cell_length_b       16.946158229555845
_cell_length_c       19.724416183672947
_cell_angle_alpha    72.01501938929573
_cell_angle_beta     90.63969880117442
_cell_angle_gamma    90.3157117660776

_space_group_name_H-M_alt    "P 1"
_space_group_IT_number       1

loop_
  _space_group_symop_operation_xyz
  'x, y, z'

loop_
  _atom_site_type_symbol
  _atom_site_label
  _atom_site_symmetry_multiplicity
  _atom_site_fract_x
  _atom_site_fract_y
  _atom_site_fract_z
  _atom_site_occupancy
  Al  Al1       1.0  0.12292122741710898  0.5002555870959356  0.4996950714412378  1.0000
  Al  Al2       1.0  0.622187611644911  0.5002668250630508  0.5018065810332786  1.0000
  Al  Al3       1.0  0.6087986071376079  0.9984849118599538  0.001329799085098703  1.0000
  Al  Al4       1.0  0.10846258967626451  0.0018140592295666003  0.00029242299994789995  1.0000
  H   H1        1.0  0.5731738071925037  0.7964660394908023  0.18409809322803738  1.0000
  H   H2        1.0  0.06187623341700289  0.19704180809333846  0.8048872805323839  1.0000
  H   H3        1.0  0.0250043692374149  0.8184484105289658  0.2076796565958077  1.0000
  H   H4        1.0  0.5229101382563357  0.19044433954451992  0.8024657814244732  1.0000
  H   H5        1.0  0.16510558441618883  0.5863635247174204  0.6788505261152623  1.0000
  H   H6        1.0  0.0834731859277937  0.41659466147940805  0.322431903456831  1.0000
  H   H7        1.0  0.5937138573239978  0.6883912351880782  0.5922793427848633  1.0000
  H   H8        1.0  0.6557335018076031  0.31294903330910984  0.4064047832819283  1.0000
  H   H9        1.0  0.4285079054102355  0.7943199571223049  0.6361996561908114  1.0000
  H   H10       1.0  0.8148985794924499  0.20627552257141704  0.3616087262892762  1.0000
  H   H11       1.0  0.42412704851510347  0.8779931141609512  0.7190793480716877  1.0000
  H   H12       1.0  0.8109818688392919  0.12182973761677121  0.2793772148027074  1.0000
  H   H13       1.0  0.5745981921135979  0.9151210818967006  0.8207687129663555  1.0000
  H   H14       1.0  0.6524515108862942  0.084212490754453  0.1789142049775023  1.0000
  H   H15       1.0  0.13881535325419492  0.8140120658094219  0.9103436764882176  1.0000
  H   H16       1.0  0.08878890242051089  0.188292130376233  0.0915271747318442  1.0000
  H   H17       1.0  0.3212850711960868  0.62544974444549  0.7792141298201684  1.0000
  H   H18       1.0  0.9218006458943436  0.3786740048847861  0.22261980723784086  1.0000
  H   H19       1.0  0.47665005204039096  0.6780889448981853  0.8651419841614754  1.0000
  H   H20       1.0  0.37853321620972485  0.7548495446571692  0.8915269904209849  1.0000
  H   H21       1.0  0.7598147983494031  0.32652348554791644  0.1375268339272466  1.0000
  H   H22       1.0  0.8535130687217957  0.24920245206134695  0.11081550787932308  1.0000
  H   H23       1.0  0.40768391820775207  0.7390479400934924  0.292327880729573  1.0000
  H   H24       1.0  0.5031848922299602  0.651865931580865  0.35447948039681165  1.0000
  H   H25       1.0  0.9053153930466707  0.2632185844803915  0.7024709481059687  1.0000
  H   H26       1.0  0.0121834490221175  0.34434077730219315  0.6351263618004239  1.0000
  H   H27       1.0  0.1619359639348303  0.6407566558103072  0.31567948049858785  1.0000
  H   H28       1.0  0.0761080053738468  0.698956381246333  0.2349592079388074  1.0000
  H   H29       1.0  0.6638145041726772  0.36158798936680386  0.691559667371038  1.0000
  H   H30       1.0  0.5666934232233984  0.3085298708819267  0.7709796908278578  1.0000
  H   H31       1.0  0.37282219219422064  0.5966674856747788  0.5141544898137907  1.0000
  H   H32       1.0  0.867398402600955  0.40540871991501604  0.4852163000323698  1.0000
  H   H33       1.0  0.35472249682606366  0.8933343872917803  0.043634520779519896  1.0000
  H   H34       1.0  0.8520146771539386  0.10518507799580598  0.9538390677036616  1.0000
  C   C1        1.0  0.36630360219414365  0.4176078837242799  0.4202092123150436  1.0000
  C   C2        1.0  0.8825368248330747  0.5837202597777919  0.5804314606736583  1.0000
  C   C3        1.0  0.378850268350007  0.3894363907573324  0.6136177897973595  1.0000
  C   C4        1.0  0.8639667186830096  0.6111413113838822  0.38735260782398473  1.0000
  C   C5        1.0  0.7161653255929609  0.7803345050609993  0.21288817562668066  1.0000
  C   C6        1.0  0.2099771458255404  0.21797739248733453  0.7827636658348283  1.0000
  C   C7        1.0  0.8780812103925869  0.8256131732881045  0.1820584861850918  1.0000
  C   C8        1.0  0.3695460668399874  0.17728357096817873  0.8205832786653956  1.0000
  C   C9        1.0  0.7046581925533745  0.7144000649137824  0.28009033324954646  1.0000
  C   C10       1.0  0.20720838620444937  0.2845603567190054  0.7154813816592309  1.0000
  C   C11       1.0  0.8728237481192026  0.6722504443147486  0.3159883733729743  1.0000
  C   C12       1.0  0.37895783048966786  0.3281836694539848  0.6845414323812591  1.0000
  C   C13       1.0  0.0396680826914064  0.6273335971147632  0.6791035208716706  1.0000
  C   C14       1.0  0.2080647847626196  0.37556273386880445  0.3213560182798502  1.0000
  C   C15       1.0  0.8802987662738601  0.6332188773632126  0.6309837589710197  1.0000
  C   C16       1.0  0.36920026449959664  0.3690985441244834  0.3689088532393185  1.0000
  C   C17       1.0  0.7165636856858909  0.6850394140976731  0.6299554156723417  1.0000
  C   C18       1.0  0.5315240287437036  0.3169278761453854  0.3691109677537269  1.0000
  C   C19       1.0  0.7121557747611861  0.7336159542711299  0.6759658831665689  1.0000
  C   C20       1.0  0.5318994684944727  0.2682670352493162  0.3230588888154742  1.0000
  C   C21       1.0  0.8728065508281021  0.7270289511252986  0.7260266934125851  1.0000
  C   C22       1.0  0.3689794084033835  0.27526803744174094  0.2737926644282139  1.0000
  C   C23       1.0  0.0375621097942087  0.6723010033810229  0.7283097101952833  1.0000
  C   C24       1.0  0.2061815604964679  0.3306614957843124  0.27214787067879337  1.0000
  C   C25       1.0  0.5509920071558484  0.789877569674978  0.6743845625353585  1.0000
  C   C26       1.0  0.6907003811397062  0.21116751062274372  0.3240215032706714  1.0000
  C   C27       1.0  0.5485974329692382  0.8360559093982689  0.7200810170010497  1.0000
  C   C28       1.0  0.6884110252679817  0.16453103535519636  0.27865145892833704  1.0000
  C   C29       1.0  0.7061893406407335  0.8297006474290216  0.7716282930995746  1.0000
  C   C30       1.0  0.5282848501317332  0.17124551025416684  0.227950451868999  1.0000
  C   C31       1.0  0.8707285610762908  0.7747861985547573  0.7738722272160742  1.0000
  C   C32       1.0  0.3662679562788114  0.22712867376463217  0.22622201224244523  1.0000
  C   C33       1.0  0.030666881646268993  0.7683466278975717  0.8244550230578439  1.0000
  C   C34       1.0  0.2038428815190017  0.23407798201694877  0.17648436959894548  1.0000
  C   C35       1.0  0.19611246983020442  0.7124705851321806  0.8257286841158588  1.0000
  C   C36       1.0  0.04083689419663019  0.29090545454006644  0.17571777506461927  1.0000
  C   C37       1.0  0.19513120623957286  0.6664786148975355  0.7789301442918912  1.0000
  C   C38       1.0  0.04616739088438491  0.33705737372086736  0.22235852837191317  1.0000
  C   C39       1.0  0.700832068285912  0.8744566617795826  0.8206991807331718  1.0000
  C   C40       1.0  0.5284300329353755  0.12577965355124834  0.1793673265735052  1.0000
  C   C41       1.0  0.8573263968283981  0.8678393705188868  0.8697849523934736  1.0000
  C   C42       1.0  0.3693604559316128  0.13285554417686285  0.1311663557767844  1.0000
  C   C43       1.0  0.0215125777421861  0.816243981793271  0.870886821721335  1.0000
  C   C44       1.0  0.20798475129610236  0.1856505291621318  0.13040316107758088  1.0000
  C   C45       1.0  0.3512267179316808  0.11074054110189029  0.8887707400636841  1.0000
  C   C46       1.0  0.8686646607054557  0.8906443254190677  0.1128295909911614  1.0000
  C   C47       1.0  0.37146565494899164  0.08453463427856892  0.07938410659308201  1.0000
  C   C48       1.0  0.8500791308322633  0.9155275721058517  0.922002668185975  1.0000
  N   N1        1.0  0.3490832350121593  0.7046913929389264  0.8752735006822477  1.0000
  N   N2        1.0  0.8857206328152217  0.2992512532004525  0.1269031895039774  1.0000
  N   N3        1.0  0.511545485845808  0.6930626871630353  0.3043515848279482  1.0000
  N   N4        1.0  0.019509495386770898  0.30408446898213276  0.685598387546129  1.0000
  N   N5        1.0  0.06724044599565811  0.6870932636698301  0.288702120892907  1.0000
  N   N6        1.0  0.5692372720938651  0.31483128632027063  0.7179018395769319  1.0000
  O   O1        1.0  0.5500365337803785  0.42142027508907637  0.5906583002644935  1.0000
  O   O2        1.0  0.0329175607841634  0.5899588041157318  0.4194032915368168  1.0000
  O   O3        1.0  0.19690665325184403  0.4446504586413412  0.4326897694536881  1.0000
  O   O4        1.0  0.7144707374943523  0.5719156605296621  0.5535339016826198  1.0000
  O   O5        1.0  0.21356527391780133  0.4072177063416406  0.5777237779040617  1.0000
  O   O6        1.0  0.6927249598822983  0.5831238105809717  0.41353294665979934  1.0000
  O   O7        1.0  0.0507977803822541  0.5565652984228465  0.566893611157461  1.0000
  O   O8        1.0  0.5325396706073987  0.42877383181633655  0.4487370332029953  1.0000
  O   O9        1.0  0.37229196358639166  0.5521531979890143  0.49286814882694313  1.0000
  O   O10       1.0  0.8721014594312706  0.4484860463223939  0.5081530982334215  1.0000
  O   O11       1.0  0.20577070043221823  0.07799496513957388  0.0486176313608482  1.0000
  O   O12       1.0  0.679220526231859  0.9420620733696979  0.9332655237612003  1.0000
  O   O13       1.0  0.5169888134977896  0.08898842233529791  0.9227811638403907  1.0000
  O   O14       1.0  0.036344106332677505  0.9260535080687902  0.0905099004236973  1.0000
  O   O15       1.0  0.5394348949130219  0.054682249162858916  0.0694211848947077  1.0000
  O   O16       1.0  0.015388779580774802  0.9249678707037248  0.9516920665407866  1.0000
  O   O17       1.0  0.7014784773410838  0.9070487550970513  0.0789148784474065  1.0000
  O   O18       1.0  0.1791618674453375  0.0801703566751258  0.9103379445292106  1.0000
  O   O19       1.0  0.35680799215071357  0.9487989176437425  0.010022297959231697  1.0000
  O   O20       1.0  0.8575984922978747  0.051928969723484035  0.9907324545695885  1.0000
