data_image0
_chemical_formula_structural       Sr2Zn2H36C28N4O28
_chemical_formula_sum              "Sr2 Zn2 H36 C28 N4 O28"
_cell_length_a       7.081821071011049
_cell_length_b       9.86590700156438
_cell_length_c       16.672279770681744
_cell_angle_alpha    81.53873989531603
_cell_angle_beta     77.73348501116025
_cell_angle_gamma    68.94937200073485

_space_group_name_H-M_alt    "P 1"
_space_group_IT_number       1

loop_
  _space_group_symop_operation_xyz
  'x, y, z'

loop_
  _atom_site_type_symbol
  _atom_site_label
  _atom_site_symmetry_multiplicity
  _atom_site_fract_x
  _atom_site_fract_y
  _atom_site_fract_z
  _atom_site_occupancy
  Sr  Sr1       1.0  0.47911144260231736  0.25013696802601965  0.7500377488910388  1.0000
  Sr  Sr2       1.0  0.5208875164537192  0.7498634534072719  0.2499652582946794  1.0000
  Zn  Zn1       1.0  0.9999992521282334  0.49999901398262375  0.5000010931667374  1.0000
  Zn  Zn2       1.0  3.957466006327586e-06  0.9999977003051442  0.9999988863916371  1.0000
  H   H1        1.0  0.27390845427989063  0.023901613614057703  0.8193640599379463  1.0000
  H   H2        1.0  0.1168374024418597  0.47634238382563837  0.6805742494393172  1.0000
  H   H3        1.0  0.7260968610897296  0.9760968954538001  0.1806349045756974  1.0000
  H   H4        1.0  0.8831598137657579  0.5236570906758329  0.3194266031510367  1.0000
  H   H5        1.0  0.13572459857037708  0.09847643047854146  0.7508863868989122  1.0000
  H   H6        1.0  0.9848469588520528  0.40166315378223044  0.7489917640432892  1.0000
  H   H7        1.0  0.864277882834074  0.9015218835057364  0.24911559008013737  1.0000
  H   H8        1.0  0.01515173136229481  0.5983353963702808  0.2510065797476884  1.0000
  H   H9        1.0  0.8393995566628052  0.9950171485990748  0.735502563959045  1.0000
  H   H10       1.0  0.5698020112780424  0.5050189931041871  0.76460436727789  1.0000
  H   H11       1.0  0.16059557627574617  0.004982381352974098  0.26449743784915813  1.0000
  H   H12       1.0  0.43019569260171403  0.49498369184498603  0.23539726014217166  1.0000
  H   H13       1.0  0.7926638366616389  0.02262613484569441  0.8280549084611335  1.0000
  H   H14       1.0  0.6429701769014782  0.47764288999228177  0.6720113931360885  1.0000
  H   H15       1.0  0.2073376601324171  0.9773711849731156  0.17194564056016756  1.0000
  H   H16       1.0  0.35702764102656237  0.5223577511753843  0.3279882291506268  1.0000
  H   H17       1.0  0.8829183833468548  0.03184144986257559  0.413361154265651  1.0000
  H   H18       1.0  0.3284168447870785  0.46815647549289696  0.0864567736593926  1.0000
  H   H19       1.0  0.11707144020135016  0.9681635396871253  0.5866384726660953  1.0000
  H   H20       1.0  0.6716008410648443  0.5318443401886269  0.913540120910177  1.0000
  H   H21       1.0  0.5185681105148419  0.9744611768063218  0.6500622650584659  1.0000
  H   H22       1.0  0.1424071024084199  0.5256918373503439  0.8499811954779659  1.0000
  H   H23       1.0  0.48141789445779903  0.025542623494331493  0.3499389463809237  1.0000
  H   H24       1.0  0.8575926334178947  0.47429768338944445  0.150022294942012  1.0000
  H   H25       1.0  0.27361069381326786  0.586797598347836  0.5545736691953634  1.0000
  H   H26       1.0  0.4150233708455886  0.9133875828324062  0.9454743665908152  1.0000
  H   H27       1.0  0.7263868186214921  0.41320517285170394  0.4454266290940082  1.0000
  H   H28       1.0  0.5849863816280703  0.08660755765296099  0.054526251295030206  1.0000
  H   H29       1.0  0.3380883243205376  0.4112290960163347  0.574719479771005  1.0000
  H   H30       1.0  0.3237067834248748  0.08897482226574026  0.9252888166982345  1.0000
  H   H31       1.0  0.6619014201067586  0.5887790649643421  0.42528152448353035  1.0000
  H   H32       1.0  0.6762973285038998  0.9110213534697351  0.07471260842268632  1.0000
  H   H33       1.0  0.6572186066569545  0.7068486424780146  0.6347322712883637  1.0000
  H   H34       1.0  0.9982845642191481  0.7932743662595809  0.8652940061796455  1.0000
  H   H35       1.0  0.34277728451961315  0.2931508402403863  0.36526845715745526  1.0000
  H   H36       1.0  0.0017259132893415556  0.20671447038053256  0.13470325456752616  1.0000
  C   C1        1.0  0.9054790292321259  0.8121610013774754  0.4609519950648887  1.0000
  C   C2        1.0  0.17871523879578896  0.6878674627811917  0.03894091038906569  1.0000
  C   C3        1.0  0.09451208441974748  0.18784285230582037  0.5390483838219495  1.0000
  C   C4        1.0  0.8213047584217819  0.31212920988674137  0.9610528246959477  1.0000
  C   C5        1.0  0.8323933477100456  0.9624614614560656  0.46376372015923545  1.0000
  C   C6        1.0  0.2586841973856125  0.53755682573599  0.036122207880801185  1.0000
  C   C7        1.0  0.16759382577604495  0.037543544527494484  0.5362356584834416  1.0000
  C   C8        1.0  0.7413224872085782  0.46243737603448637  0.9638761312651452  1.0000
  C   C9        1.0  0.6934385840469873  0.024232178551656595  0.532537347632676  1.0000
  C   C10       1.0  0.2499529962145957  0.47581565966273587  0.9674157727274842  1.0000
  C   C11       1.0  0.3065529049529304  0.9757718003987178  0.467461099630384  1.0000
  C   C12       1.0  0.7500542901000106  0.5241797087739285  0.0325813361148235  1.0000
  C   C13       1.0  0.6303451648635703  0.9318061599345099  0.5957801923915369  1.0000
  C   C14       1.0  0.1573843830013216  0.5682810255001627  0.904250017584843  1.0000
  C   C15       1.0  0.3696462100880567  0.0681998627973712  0.40422026000487676  1.0000
  C   C16       1.0  0.8426219611722061  0.4317141786527046  0.09574962537431729  1.0000
  C   C17       1.0  0.7078518365449824  0.7817663351493278  0.5877027387037829  1.0000
  C   C18       1.0  0.07697810573771609  0.7183262658989377  0.9122997576304569  1.0000
  C   C19       1.0  0.2921397740451469  0.21823530225173468  0.4122982933110818  1.0000
  C   C20       1.0  0.9230219961705117  0.2816688068378568  0.08770192286742429  1.0000
  C   C21       1.0  0.06526817667221972  0.7406395658005703  0.3902288662291936  1.0000
  C   C22       1.0  0.1966191087812775  0.7592402129053325  0.1096292201384159  1.0000
  C   C23       1.0  0.9347236342160983  0.25937426422726867  0.6097685206240087  1.0000
  C   C24       1.0  0.8033948818094958  0.2407519430157023  0.8903671321037692  1.0000
  C   C25       1.0  0.6145452756158531  0.18860481246432673  0.5341240067178177  1.0000
  C   C26       1.0  0.33703243170823094  0.31147147352704946  0.9657771787250906  1.0000
  C   C27       1.0  0.3854574153529102  0.8114002674168006  0.465874203397881  1.0000
  C   C28       1.0  0.6629753148930463  0.6885256799400351  0.03422592264264781  1.0000
  N   N1        1.0  0.8433300873969855  0.7232294725487234  0.5218776583384822  1.0000
  N   N2        1.0  0.0884427968932045  0.7768575836976837  0.9780487723123342  1.0000
  N   N3        1.0  0.15666575958606194  0.2767743092501361  0.47812381961956857  1.0000
  N   N4        1.0  0.9115615338660207  0.22313993120471304  0.021948764243561028  1.0000
  O   O1        1.0  0.2750772059728773  0.0700016771963732  0.7620741212796033  1.0000
  O   O2        1.0  0.10669422773327866  0.4303539189262295  0.7378866820350394  1.0000
  O   O3        1.0  0.724927010738057  0.9299978814875228  0.23792542040964546  1.0000
  O   O4        1.0  0.8933048453710486  0.5696444587255555  0.262114320017325  1.0000
  O   O5        1.0  0.7414067487010528  0.9892419491193247  0.7858563888364002  1.0000
  O   O6        1.0  0.5162260558720889  0.5109581704483687  0.7142723446171856  1.0000
  O   O7        1.0  0.2585923244032672  0.010756428532459896  0.21414461321596426  1.0000
  O   O8        1.0  0.48377271173895786  0.4890423372352897  0.2857293334378355  1.0000
  O   O9        1.0  0.1364831792717353  0.6007212863091097  0.39516308565686836  1.0000
  O   O10       1.0  0.13242675614053923  0.8991554359369687  0.1047958060329393  1.0000
  O   O11       1.0  0.8635051610036087  0.39929005431948633  0.6048391717759288  1.0000
  O   O12       1.0  0.8675757619154968  0.10083887673465598  0.8952008315487061  1.0000
  O   O13       1.0  0.12350382636704915  0.8206107507858175  0.3314846044244958  1.0000
  O   O14       1.0  0.27670552932990217  0.6791899734934929  0.1682405716089193  1.0000
  O   O15       1.0  0.8764989437226166  0.17939115766431968  0.6685122283684066  1.0000
  O   O16       1.0  0.7232904317014363  0.3208117645238601  0.8317589012157853  1.0000
  O   O17       1.0  0.4874320166070161  0.24298694194732906  0.5979640200226797  1.0000
  O   O18       1.0  0.32746446547896824  0.2571700893899518  0.9020408979189583  1.0000
  O   O19       1.0  0.5125698980044007  0.7570113330202373  0.40203855944944417  1.0000
  O   O20       1.0  0.6725238676673871  0.7428238433993711  0.0979616222193656  1.0000
  O   O21       1.0  0.6785054214163682  0.2593443331060712  0.4720913978350508  1.0000
  O   O22       1.0  0.41015764717368347  0.24064792842401053  0.027711512056164605  1.0000
  O   O23       1.0  0.32148049516924  0.7406680653554928  0.5279113126288096  1.0000
  O   O24       1.0  0.5898497514650033  0.7593505251932695  0.9722883032396296  1.0000
  O   O25       1.0  0.21817061359814027  0.5048594235654774  0.5735494908757204  1.0000
  O   O26       1.0  0.29656635596916225  0.9952401285220557  0.9264562421055158  1.0000
  O   O27       1.0  0.7818228096951715  0.49514541606635737  0.42645244011340105  1.0000
  O   O28       1.0  0.7034469887076755  0.004755159813242897  0.07354208995253941  1.0000
