data_image0
_chemical_formula_structural       Mn4H28C28N8Cl4O16
_chemical_formula_sum              "Mn4 H28 C28 N8 Cl4 O16"
_cell_length_a       7.72578316707367
_cell_length_b       8.182530404699724
_cell_length_c       16.350913054076152
_cell_angle_alpha    90.00026341400864
_cell_angle_beta     89.99968024013833
_cell_angle_gamma    114.99359456759154

_space_group_name_H-M_alt    "P 1"
_space_group_IT_number       1

loop_
  _space_group_symop_operation_xyz
  'x, y, z'

loop_
  _atom_site_type_symbol
  _atom_site_label
  _atom_site_symmetry_multiplicity
  _atom_site_fract_x
  _atom_site_fract_y
  _atom_site_fract_z
  _atom_site_occupancy
  Mn  Mn1       1.0  0.24895129644257002  0.5231844483878804  0.7473169526845993  1.0000
  Mn  Mn2       1.0  0.7509636814935162  0.9683349981758127  0.2433804218154307  1.0000
  Mn  Mn3       1.0  0.7509648502197876  0.468336189055286  0.2566176375465972  1.0000
  Mn  Mn4       1.0  0.24895577624462817  0.023184262200864197  0.7526799904006225  1.0000
  H   H1        1.0  0.8359653051959343  0.46162652197576654  0.6423672298475367  1.0000
  H   H2        1.0  0.16431839320212302  0.03871728956254122  0.14216314325881294  1.0000
  H   H3        1.0  0.16432002639251655  0.5387167091785655  0.35783179887503275  1.0000
  H   H4        1.0  0.8359668585811731  0.9616286397407946  0.8576310151103143  1.0000
  H   H5        1.0  0.6899133982327187  0.3679763625237841  0.5555281267329164  1.0000
  H   H6        1.0  0.31100146281952584  0.1324764364965745  0.055523248463252586  1.0000
  H   H7        1.0  0.31099383304577805  0.632477689594687  0.4444739704005869  1.0000
  H   H8        1.0  0.6899134463330016  0.8679802999843248  0.944469674863619  1.0000
  H   H9        1.0  0.7476323181696924  0.7683255062822667  0.6937342505334954  1.0000
  H   H10       1.0  0.2519150437205724  0.7317437199275574  0.1938367832441017  1.0000
  H   H11       1.0  0.2519229813440802  0.2317411158150691  0.30616326661627363  1.0000
  H   H12       1.0  0.747646394264642  0.2683336873132872  0.8062662270215881  1.0000
  H   H13       1.0  0.7316076676972186  0.587882522516459  0.4490920677103531  1.0000
  H   H14       1.0  0.2691610717664333  0.9121951860378417  0.9490743038509066  1.0000
  H   H15       1.0  0.2691509998913091  0.4122033888793056  0.5509253188597683  1.0000
  H   H16       1.0  0.7316017208979417  0.0878826201073437  0.0509069990925823  1.0000
  H   H17       1.0  0.7694075846776303  0.9444916063114593  0.4478447928316953  1.0000
  H   H18       1.0  0.2303161606481012  0.5555044248097332  0.9479792031736096  1.0000
  H   H19       1.0  0.2303063235836547  0.0555045358440651  0.552022756282561  1.0000
  H   H20       1.0  0.7694042126342995  0.44449170569161117  0.0521568324677446  1.0000
  H   H21       1.0  0.6633251819682114  0.0749688831220467  0.640149397583386  1.0000
  H   H22       1.0  0.33624670290121383  0.42468936183697553  0.1399200627053716  1.0000
  H   H23       1.0  0.3362445985828373  0.9246834025277194  0.3600826569619784  1.0000
  H   H24       1.0  0.6633329355823817  0.5749790982281198  0.8598563597977815  1.0000
  H   H25       1.0  0.810317403207428  0.16643996218272863  0.553111356836375  1.0000
  H   H26       1.0  0.18811587838268196  0.33328612256858037  0.053185546235830806  1.0000
  H   H27       1.0  0.18810822657851392  0.8332873882964975  0.44681490598060236  1.0000
  H   H28       1.0  0.8103245005636096  0.6664452487196542  0.9468954479866767  1.0000
  C   C1        1.0  0.5312277577930758  0.36859758155105743  0.6637962962519738  1.0000
  C   C2        1.0  0.4688299231866395  0.1320504265267601  0.1641230917834875  1.0000
  C   C3        1.0  0.46882824403023443  0.6320591811305291  0.335876157035969  1.0000
  C   C4        1.0  0.5312297581202683  0.8685914858962815  0.8362019244289485  1.0000
  C   C5        1.0  0.7089716954702397  0.45434449687182626  0.6092144999054909  1.0000
  C   C6        1.0  0.2916180523688324  0.0461092134779761  0.109230878378682  1.0000
  C   C7        1.0  0.29161687060587127  0.5461061166098845  0.3907668036975949  1.0000
  C   C8        1.0  0.7089722491584423  0.9543481444840367  0.8907834509085433  1.0000
  C   C9        1.0  0.7487525009570248  0.7678562418235945  0.6274975804843238  1.0000
  C   C10       1.0  0.2512119190196742  0.7323184434452017  0.1276013399727276  1.0000
  C   C11       1.0  0.2512166463746013  0.23231620187627303  0.3723956551364722  1.0000
  C   C12       1.0  0.7487608619549067  0.2678620911226801  0.8725028930439436  1.0000
  C   C13       1.0  0.7424527183926061  0.6801760161749472  0.4984251848168597  1.0000
  C   C14       1.0  0.258068357751732  0.8201008150190887  0.998509983554328  1.0000
  C   C15       1.0  0.2580594051424114  0.320087157016772  0.501486397793343  1.0000
  C   C16       1.0  0.7424490534998752  0.180179892571374  0.0015746780887014  1.0000
  C   C17       1.0  0.7582659660195858  0.8532650862613735  0.49778442099377423  1.0000
  C   C18       1.0  0.24155695745123743  0.6467715099567498  0.9979037228569042  1.0000
  C   C19       1.0  0.24155615310056078  0.14678752956068314  0.5020935250161713  1.0000
  C   C20       1.0  0.7582637517710326  0.35326356515854235  0.0022157998580354  1.0000
  C   C21       1.0  0.7903958308497963  0.08131804919372602  0.6073253826365813  1.0000
  C   C22       1.0  0.2088850968837974  0.41858484420163933  0.1073997151940489  1.0000
  C   C23       1.0  0.2088844219262924  0.9185858048510768  0.3926002676727904  1.0000
  C   C24       1.0  0.7904039628342261  0.5813270906528275  0.8926794433600734  1.0000
  C   C25       1.0  0.9673150522454462  0.1670371488545186  0.6625606962760173  1.0000
  C   C26       1.0  0.032623373265636225  0.3331292944062767  0.16299674375110132  1.0000
  C   C27       1.0  0.03262418830263404  0.8331407493825224  0.3370028941906753  1.0000
  C   C28       1.0  0.9673235071948342  0.667031047507166  0.837443250342524  1.0000
  N   N1        1.0  0.7373852149565466  0.6308291087025496  0.5796420057572362  1.0000
  N   N2        1.0  0.2633701596410986  0.8695894216023276  0.0797277032944166  1.0000
  N   N3        1.0  0.2633697054483691  0.3695941952820263  0.4202738578247676  1.0000
  N   N4        1.0  0.7373854474533205  0.13083253197904549  0.9203569581981768  1.0000
  N   N5        1.0  0.7611854754398238  0.903912103070205  0.5786998346266188  1.0000
  N   N6        1.0  0.2382182010889621  0.5960474663008241  0.0788186029103315  1.0000
  N   N7        1.0  0.2382198007875758  0.09604819231221737  0.4211830045184612  1.0000
  N   N8        1.0  0.7611907903662568  0.40391822078032646  0.9213021434396254  1.0000
  Cl  Cl1       1.0  0.2484214903598954  0.26917076819191277  0.8555754463573493  1.0000
  Cl  Cl2       1.0  0.7517789256529851  0.2347128601446329  0.35872114502632974  1.0000
  Cl  Cl3       1.0  0.7517762953869749  0.7347057244854794  0.14127759604309634  1.0000
  Cl  Cl4       1.0  0.24842177762737083  0.7691730906701365  0.6444220659889197  1.0000
  O   O1        1.0  0.4294395772855211  0.4539013802291337  0.6724553723383692  1.0000
  O   O2        1.0  0.5701130173588069  0.04657625147574151  0.173538236181102  1.0000
  O   O3        1.0  0.5701227055381822  0.5465754868605613  0.3264623834760698  1.0000
  O   O4        1.0  0.42943304869551463  0.9539020020299844  0.8275457595404417  1.0000
  O   O5        1.0  0.5038647837938228  0.2170019273899086  0.694212195724333  1.0000
  O   O6        1.0  0.49643831974614033  0.2840519858560456  0.1941551929283065  1.0000
  O   O7        1.0  0.4964399184689086  0.7840470771681468  0.3058480036197722  1.0000
  O   O8        1.0  0.5038680369617268  0.7170064620197606  0.8057881933759887  1.0000
  O   O9        1.0  0.9969098442119061  0.3208095497590194  0.6909488519583817  1.0000
  O   O10       1.0  0.003294485189705691  0.1794712484175278  0.1914109203525172  1.0000
  O   O11       1.0  0.0032952888992383777  0.679470404631239  0.3085866052906781  1.0000
  O   O12       1.0  0.996916095498875  0.8208208439298302  0.8090541485984489  1.0000
  O   O13       1.0  0.065349016208998  0.07896936238329741  0.6739801042188702  1.0000
  O   O14       1.0  0.9348744337469129  0.42141117478286105  0.1747161046744239  1.0000
  O   O15       1.0  0.9348821522864982  0.9214117571379036  0.325282585470589  1.0000
  O   O16       1.0  0.06534621832569336  0.5789753670089866  0.8260211204277752  1.0000
