data_image0
_chemical_formula_structural       Zn2H58C58I10N6O14
_chemical_formula_sum              "Zn2 H58 C58 I10 N6 O14"
_cell_length_a       14.585183973783598
_cell_length_b       15.912756531861634
_cell_length_c       19.31094163390939
_cell_angle_alpha    89.87758722465944
_cell_angle_beta     89.90886388357191
_cell_angle_gamma    89.86782982311682

_space_group_name_H-M_alt    "P 1"
_space_group_IT_number       1

loop_
  _space_group_symop_operation_xyz
  'x, y, z'

loop_
  _atom_site_type_symbol
  _atom_site_label
  _atom_site_symmetry_multiplicity
  _atom_site_fract_x
  _atom_site_fract_y
  _atom_site_fract_z
  _atom_site_occupancy
  Zn  Zn1       1.0  0.40469066098715706  0.5013284148995892  0.4960765403092893  1.0000
  Zn  Zn2       1.0  0.5981846940557956  0.5020137942507431  0.49706980403009726  1.0000
  H   H1        1.0  0.0669346021744204  0.5898573697826206  0.4292080246641348  1.0000
  H   H2        1.0  0.9187575287854556  0.616650741813764  0.4507103490096113  1.0000
  H   H3        1.0  0.9100160415981903  0.3883991334353282  0.4448696004291293  1.0000
  H   H4        1.0  0.05254928272275089  0.3690659585583801  0.4844989336045202  1.0000
  H   H5        1.0  0.4160694504618121  0.6089586979200589  0.848429312914135  1.0000
  H   H6        1.0  0.5744642527941508  0.3799161716015433  0.8450719202814413  1.0000
  H   H7        1.0  0.4253838170662618  0.6143933203228542  0.275725824628438  1.0000
  H   H8        1.0  0.5765479460281567  0.3826523383237799  0.2809193360807996  1.0000
  H   H9        1.0  0.5130833005278531  0.06099293112496438  0.4068853709256288  1.0000
  H   H10       1.0  0.6344828755078921  0.08361124888582339  0.49562642806247936  1.0000
  H   H11       1.0  0.45922058198470234  0.920586037164867  0.4042835315638981  1.0000
  H   H12       1.0  0.6124340943492186  0.9429846648079873  0.4589488419345855  1.0000
  H   H13       1.0  0.6304270726447854  0.9197116539652797  0.5473322717201512  1.0000
  H   H14       1.0  0.3622103619728989  0.943836790693062  0.4559520861682386  1.0000
  H   H15       1.0  0.6050873813342293  0.060664286095246184  0.5825456244214848  1.0000
  H   H16       1.0  0.39694633574418237  0.0844039757154533  0.42516871827832853  1.0000
  H   H17       1.0  0.8375921737585512  0.5020827658817807  0.3029242726188457  1.0000
  H   H18       1.0  0.8017636302897129  0.4319087501698816  0.36911079405721386  1.0000
  H   H19       1.0  0.9575713042251267  0.4015817683884535  0.2643714246424125  1.0000
  H   H20       1.0  0.932394526176033  0.3331078087677141  0.3336116431277247  1.0000
  H   H21       1.0  0.7723283166379884  0.31090010872108553  0.2866506495328736  1.0000
  H   H22       1.0  0.8565170338518157  0.2833932739210851  0.22418345124376055  1.0000
  H   H23       1.0  0.7962426882092046  0.3798453714929976  0.21672901464443578  1.0000
  H   H24       1.0  0.1749571009854733  0.5214005512923521  0.3743090567053712  1.0000
  H   H25       1.0  0.06735721729253899  0.5122116890434822  0.3301145114245472  1.0000
  H   H26       1.0  0.23704389176825907  0.40094422424201775  0.3086587738395608  1.0000
  H   H27       1.0  0.1322429512416932  0.39051070225536927  0.2634870898080663  1.0000
  H   H28       1.0  0.1519452798924164  0.5366550339395388  0.2131604979759558  1.0000
  H   H29       1.0  0.24807537527888704  0.4727946277536859  0.19284247413859387  1.0000
  H   H30       1.0  0.25608539473421377  0.5480453423127616  0.2598728683628195  1.0000
  H   H31       1.0  0.9561682670173111  0.5231235586153672  0.7256863872547187  1.0000
  H   H32       1.0  0.9450745691683334  0.4147178712769274  0.703608759186082  1.0000
  H   H33       1.0  0.7834762864184268  0.5356570107915386  0.7279881189767252  1.0000
  H   H34       1.0  0.7744848618998148  0.4276164934390535  0.7088917474645342  1.0000
  H   H35       1.0  0.856286629374047  0.391617901832113  0.8209172414013038  1.0000
  H   H36       1.0  0.7558517783498145  0.4517490307225172  0.8366904596658955  1.0000
  H   H37       1.0  0.8651407150365172  0.5002757011495474  0.8405989713364052  1.0000
  H   H38       1.0  0.18034403400751128  0.6134654727145942  0.6237113745163684  1.0000
  H   H39       1.0  0.20887188066890158  0.5063625315248428  0.6433789291681435  1.0000
  H   H40       1.0  0.12820717433912415  0.5200160413708305  0.7576364337356125  1.0000
  H   H41       1.0  0.2270639264161787  0.5827272787334719  0.7490908097811015  1.0000
  H   H42       1.0  0.13275509590191348  0.7109574839047423  0.7273001505573475  1.0000
  H   H43       1.0  0.09774833808130977  0.6631557502271193  0.8061693997080965  1.0000
  H   H44       1.0  0.0302363824911325  0.651303857287999  0.7302128671038588  1.0000
  H   H45       1.0  0.8319173910629161  0.7207982086291337  0.5952246652950707  1.0000
  H   H46       1.0  0.799506631263476  0.6740380974938913  0.5157187901334835  1.0000
  H   H47       1.0  0.9436092091560225  0.8130276622571629  0.5327414137966784  1.0000
  H   H48       1.0  0.9128687790732284  0.7670248845835416  0.4528566590992966  1.0000
  H   H49       1.0  0.7490769642801494  0.8175805889382273  0.4688438648691644  1.0000
  H   H50       1.0  0.827694770690826  0.9029245722624064  0.46915426127884535  1.0000
  H   H51       1.0  0.7807606406631677  0.8652421038162287  0.5481641663975125  1.0000
  H   H52       1.0  0.13049080526331375  0.774408272706232  0.5117732279804343  1.0000
  H   H53       1.0  0.0753026419590554  0.7314604357283299  0.438186906111902  1.0000
  H   H54       1.0  0.2758483422910416  0.6997683253916307  0.4808567465345135  1.0000
  H   H55       1.0  0.22295924565639066  0.654444681216354  0.40797926031579823  1.0000
  H   H56       1.0  0.19855739660152943  0.7975905880500206  0.3551046100094695  1.0000
  H   H57       1.0  0.3161962106560027  0.7821054383704008  0.3757377452150052  1.0000
  H   H58       1.0  0.24621444229800457  0.8452510505421101  0.43001536974156807  1.0000
  C   C1        1.0  0.5007798456333815  0.6630757648860028  0.4991276808148227  1.0000
  C   C2        1.0  0.49323897632866215  0.4898282466035511  0.930177768421494  1.0000
  C   C3        1.0  0.4567292292669193  0.5595778333056884  0.1759715520186163  1.0000
  C   C4        1.0  0.5371801617418084  0.4267454220995716  0.1790689254048843  1.0000
  C   C5        1.0  0.4575716790811056  0.5626282591044995  0.248001098970505  1.0000
  C   C6        1.0  0.5427059124462588  0.431688216259836  0.2509490343656324  1.0000
  C   C7        1.0  0.5018117443062237  0.4992308055306012  0.2852701766301777  1.0000
  C   C8        1.0  0.4955928236567927  0.4912563029157225  0.1394886455110154  1.0000
  C   C9        1.0  0.43603389003180826  0.9552945999317969  0.4501627424583532  1.0000
  C   C10       1.0  0.5866624327538759  0.9549554900240977  0.5115474620115847  1.0000
  C   C11       1.0  0.5860019099987923  0.04889091371816079  0.5283988955690687  1.0000
  C   C12       1.0  0.4568595291939488  0.049317798100283  0.4435854140906628  1.0000
  C   C13       1.0  0.49855325872061934  0.2505304680508543  0.5025505057866867  1.0000
  C   C14       1.0  0.4872678916891927  0.919698448113408  0.5142904065847134  1.0000
  C   C15       1.0  0.48845186183094563  0.0844447337273806  0.5148571608173  1.0000
  C   C16       1.0  0.49800663068270973  0.5003537843371219  0.6306361855851321  1.0000
  C   C17       1.0  0.42275186785916213  0.051120635040120994  0.5736653539037491  1.0000
  C   C18       1.0  0.4377977518843749  0.9530239000300113  0.5813374226793755  1.0000
  C   C19       1.0  0.49080402830311687  0.17533372675081438  0.5113097328350307  1.0000
  C   C20       1.0  0.4902657959877955  0.8289476673757716  0.5110571307108387  1.0000
  C   C21       1.0  0.4981577304847136  0.7535793921770872  0.5034379114261753  1.0000
  C   C22       1.0  0.950742106841787  0.5937164545917285  0.4987407527597156  1.0000
  C   C23       1.0  0.05664995244169549  0.58598797187652  0.48559573115130655  1.0000
  C   C24       1.0  0.9466689953058987  0.44869179672045323  0.4444964407126974  1.0000
  C   C25       1.0  0.05017037906483779  0.42895105786372056  0.4558565445494978  1.0000
  C   C26       1.0  0.9131027546962114  0.5009937651475622  0.5087593518978579  1.0000
  C   C27       1.0  0.09050385300758985  0.4960157624492183  0.5073852064658482  1.0000
  C   C28       1.0  0.055603157995108184  0.4729627954006616  0.5830158785603174  1.0000
  C   C29       1.0  0.9462665184322531  0.462758039069726  0.5785894178262296  1.0000
  C   C30       1.0  0.1892163628810053  0.4949216792661345  0.5037567007915627  1.0000
  C   C31       1.0  0.8141360447258207  0.5027821177220632  0.5077841300910677  1.0000
  C   C32       1.0  0.5026985152545579  0.34086904295755  0.4966362679349885  1.0000
  C   C33       1.0  0.5034092931290957  0.5029397473349062  0.3629022466212106  1.0000
  C   C34       1.0  0.45562945128771287  0.5633919222376206  0.7471546812996408  1.0000
  C   C35       1.0  0.539267443435463  0.43249902977242977  0.7452437747391228  1.0000
  C   C36       1.0  0.45099058986311036  0.559916809798146  0.8192246575473588  1.0000
  C   C37       1.0  0.540522531133682  0.4307660848533885  0.8172950470095088  1.0000
  C   C38       1.0  0.4946819855596019  0.4938450996484106  0.8541827171206721  1.0000
  C   C39       1.0  0.4978154359136937  0.4989817794578925  0.7087872449736139  1.0000
  C   C40       1.0  0.49368501424792294  0.4880333270175399  0.063199593437318  1.0000
  C   C41       1.0  0.8613478266977737  0.45219896009707117  0.3380535909000031  1.0000
  C   C42       1.0  0.9014222586798794  0.3787655899717136  0.2975433113220873  1.0000
  C   C43       1.0  0.8276674630918206  0.3359758275721845  0.2538890057485901  1.0000
  C   C44       1.0  0.12798108373421258  0.4774035161194802  0.3482582971470691  1.0000
  C   C45       1.0  0.1781115593638702  0.43635579606950603  0.2882186520318655  1.0000
  C   C46       1.0  0.2101317705133141  0.5020527601539584  0.23565227013430254  1.0000
  C   C47       1.0  0.910921744822154  0.4764902709890038  0.7017681642204181  1.0000
  C   C48       1.0  0.8171074443823514  0.4743361887469176  0.7355522065588573  1.0000
  C   C49       1.0  0.8241054071648931  0.4533999639321563  0.8126587434504415  1.0000
  C   C50       1.0  0.16078689448382014  0.5580419880183385  0.6542080398778437  1.0000
  C   C51       1.0  0.15584422012518923  0.5759268204221112  0.7312270557457481  1.0000
  C   C52       1.0  0.10085750329608349  0.654545620973387  0.7497856530254978  1.0000
  C   C53       1.0  0.8565653835705546  0.7049820718196145  0.5430068819286333  1.0000
  C   C54       1.0  0.8863789146749921  0.7840436254711276  0.5044941505693288  1.0000
  C   C55       1.0  0.8066660481047022  0.8459006881797035  0.4970738561053452  1.0000
  C   C56       1.0  0.13032937011244167  0.7202705557988407  0.4763623456668284  1.0000
  C   C57       1.0  0.2231372793370667  0.7107344752165332  0.44116934774040567  1.0000
  C   C58       1.0  0.24715630102547687  0.7881854669516314  0.3979630844975119  1.0000
  I   I1        1.0  0.4040311097806111  0.6718292671652576  0.6969234467642522  1.0000
  I   I2        1.0  0.5964126803886813  0.3292730359983976  0.6921615478816392  1.0000
  I   I3        1.0  0.28168982392548964  0.0907237036544259  0.544093789993198  1.0000
  I   I4        1.0  0.4460533410843225  0.12405457650620379  0.6680139318253424  1.0000
  I   I5        1.0  0.8929076147002488  0.3236483406645618  0.5772597543669349  1.0000
  I   I6        1.0  0.13331237753585157  0.3534983276433934  0.6147729388055865  1.0000
  I   I7        1.0  0.39928453552243326  0.6651546262291458  0.1255001500884276  1.0000
  I   I8        1.0  0.5863013882079071  0.31404095800319004  0.1345588014248165  1.0000
  I   I9        1.0  0.3117354063159112  0.8805276612114027  0.6005116948361433  1.0000
  I   I10       1.0  0.5247397452592537  0.9137328460433878  0.670052770847434  1.0000
  N   N1        1.0  0.5724763276915042  0.46826804805714767  0.962126942158676  1.0000
  N   N2        1.0  0.41276442726189794  0.5048597606419776  0.9628317565356567  1.0000
  N   N3        1.0  0.5729590623629547  0.4689716225389731  0.030494953208744797  1.0000
  N   N4        1.0  0.4128459638702537  0.5024434211139022  0.0313439496063239  1.0000
  N   N5        1.0  0.2678876604144094  0.49839662998085993  0.49653353790608185  1.0000
  N   N6        1.0  0.7352633277647769  0.5056630207711449  0.5015593248034165  1.0000
  O   O1        1.0  0.42545254955600587  0.6262418755347382  0.512704358709307  1.0000
  O   O2        1.0  0.5768143524361591  0.6290804105741401  0.48281777694518974  1.0000
  O   O3        1.0  0.42300424116403684  0.48134515335181044  0.6016655882592161  1.0000
  O   O4        1.0  0.5730915637381954  0.5197751770808664  0.6017403854142599  1.0000
  O   O5        1.0  0.4283292924538316  0.3773275757693852  0.4792832388338297  1.0000
  O   O6        1.0  0.5793414555955678  0.3752955200456753  0.5097660768320936  1.0000
  O   O7        1.0  0.42913527519770156  0.5254901601666973  0.39191859297874737  1.0000
  O   O8        1.0  0.5783344872820989  0.48290841906857196  0.39208907892319184  1.0000
  O   O9        1.0  0.9273352511962827  0.493225862671288  0.3827934072130006  1.0000
  O   O10       1.0  0.10074344133512618  0.41136545105970157  0.3956393123372662  1.0000
  O   O11       1.0  0.8987205517551755  0.5010436131321254  0.6295912941047135  1.0000
  O   O12       1.0  0.06917155319295888  0.5329152420903964  0.6316499038061137  1.0000
  O   O13       1.0  0.9311053858900493  0.6467488740691179  0.5542470242812172  1.0000
  O   O14       1.0  0.10762152593353137  0.6484792176655529  0.5189435164122571  1.0000
