data_image0
_chemical_formula_structural       CdH12C12N12
_chemical_formula_sum              "Cd1 H12 C12 N12"
_cell_length_a       6.343881885129252
_cell_length_b       7.7456663110186526
_cell_length_c       9.742953088715701
_cell_angle_alpha    104.37531246092507
_cell_angle_beta     96.75395929620002
_cell_angle_gamma    110.57550069058583

_space_group_name_H-M_alt    "P 1"
_space_group_IT_number       1

loop_
  _space_group_symop_operation_xyz
  'x, y, z'

loop_
  _atom_site_type_symbol
  _atom_site_label
  _atom_site_symmetry_multiplicity
  _atom_site_fract_x
  _atom_site_fract_y
  _atom_site_fract_z
  _atom_site_occupancy
  Cd  Cd1       1.0  1.2972329912000003e-06  2.9017058907e-06  6.659824834e-07  1.0000
  H   H1        1.0  0.45867385720272585  0.1816679110419628  0.5003188750032804  1.0000
  H   H2        1.0  0.5413093829938802  0.8183329398936436  0.49967887499454383  1.0000
  H   H3        1.0  0.35625012248259935  0.19477651067093396  0.3265865291398882  1.0000
  H   H4        1.0  0.6437478269464735  0.8052217380351507  0.6734067017619978  1.0000
  H   H5        1.0  0.6589293215274026  0.5352836039532676  0.3931408470235879  1.0000
  H   H6        1.0  0.341057762845452  0.4647187490910056  0.6068544104421606  1.0000
  H   H7        1.0  0.7440749426954695  0.5246095757201064  0.5698488749740918  1.0000
  H   H8        1.0  0.25590924236451684  0.4753898435107473  0.4301455880953711  1.0000
  H   H9        1.0  0.02025407733403038  0.9697391065425336  0.36271461356378143  1.0000
  H   H10       1.0  0.9797346131960153  0.030256153356212696  0.6372947759418466  1.0000
  H   H11       1.0  0.6428770510596138  0.21488496026918824  0.1463434291951842  1.0000
  H   H12       1.0  0.3571465775142358  0.7851138712736941  0.8536682955326071  1.0000
  C   C1        1.0  0.5076928007061099  0.2499402114346339  0.4165887868982381  1.0000
  C   C2        1.0  0.492304162070198  0.7500522746067444  0.5834052953531098  1.0000
  C   C3        1.0  0.5965487127975777  0.47013051886618484  0.4766671416211281  1.0000
  C   C4        1.0  0.4034450818750203  0.5298690886900417  0.5233270644808812  1.0000
  C   C5        1.0  0.9086368930224109  0.042540789908429105  0.33882959383641525  1.0000
  C   C6        1.0  0.09134824097827027  0.9574500723646366  0.6611755859307493  1.0000
  C   C7        1.0  0.7225814109969663  0.16760541848150012  0.2266386564933214  1.0000
  C   C8        1.0  0.27741761439696694  0.8324129902677341  0.7733606491175138  1.0000
  C   C9        1.0  0.7386042814093088  0.2666749323075663  0.8578635778968077  1.0000
  C   C10       1.0  0.2614042470851247  0.7333292414699458  0.14212237998630436  1.0000
  C   C11       1.0  0.6697340918764568  0.5435423835875781  0.8689690652839417  1.0000
  C   C12       1.0  0.33024944170036724  0.4564555804705606  0.13102403734396972  1.0000
  N   N1        1.0  0.6744619579364155  0.17989155637734203  0.3584926713531615  1.0000
  N   N2        1.0  0.32553378379630976  0.8201052741649021  0.6415155098983262  1.0000
  N   N3        1.0  0.7923028625962443  0.10105529690468978  0.4321862534583972  1.0000
  N   N4        1.0  0.20769382399986114  0.8989401019328083  0.5678186408647221  1.0000
  N   N5        1.0  0.8719658554090799  0.08184713675953499  0.21108577059030859  1.0000
  N   N6        1.0  0.12804495079239347  0.918151429283597  0.7889228719263884  1.0000
  N   N7        1.0  0.6632152654086028  0.3749846019693521  0.8030310723645897  1.0000
  N   N8        1.0  0.3368175224961477  0.6249956741504975  0.19696643407555567  1.0000
  N   N9        1.0  0.7998629960051176  0.15397281232033316  0.8934780848214884  1.0000
  N   N10       1.0  0.20012990419348864  0.8460354342694103  0.10652492613871087  1.0000
  N   N11       1.0  0.6650013674342218  0.6985540727478607  0.9150515802332322  1.0000
  N   N12       1.0  0.33502657324297763  0.30147929403616297  0.08495285308335097  1.0000
