data_image0
_chemical_formula_structural       Zn2H26Pd2C38N14O2
_chemical_formula_sum              "Zn2 H26 Pd2 C38 N14 O2"
_cell_length_a       9.730201519535125
_cell_length_b       9.730172592686218
_cell_length_c       11.549600917638527
_cell_angle_alpha    82.44999835799376
_cell_angle_beta     82.45014263249794
_cell_angle_gamma    71.99177398130868

_space_group_name_H-M_alt    "P 1"
_space_group_IT_number       1

loop_
  _space_group_symop_operation_xyz
  'x, y, z'

loop_
  _atom_site_type_symbol
  _atom_site_label
  _atom_site_symmetry_multiplicity
  _atom_site_fract_x
  _atom_site_fract_y
  _atom_site_fract_z
  _atom_site_occupancy
  Zn  Zn1       1.0  0.26452043102138134  0.735479724618621  0.7499999593858819  1.0000
  Zn  Zn2       1.0  0.7354793298119944  0.2645211715582079  0.2500000404395166  1.0000
  H   H1        1.0  0.5417993403688044  0.5629516368558641  0.7273784954207373  1.0000
  H   H2        1.0  0.4370493298010771  0.4581998466586512  0.7726209744634431  1.0000
  H   H3        1.0  0.45820042046456433  0.43704925932096467  0.27262150440466115  1.0000
  H   H4        1.0  0.562951790509146  0.5417999638508633  0.22737812943756813  1.0000
  H   H5        1.0  0.28308537950947243  0.5139911827054322  0.982561664245317  1.0000
  H   H6        1.0  0.4860072040941219  0.71691622375468  0.5174367714374242  1.0000
  H   H7        1.0  0.7169147046260708  0.4860086292578316  0.01743668754890132  1.0000
  H   H8        1.0  0.5139911980112615  0.2830857588398885  0.4825632583162047  1.0000
  H   H9        1.0  0.11721783259600474  0.47701953261292124  0.1616958642199862  1.0000
  H   H10       1.0  0.5229808716366547  0.8827824404924416  0.33830178268936356  1.0000
  H   H11       1.0  0.882782251539531  0.5229802793503354  0.8383024875742324  1.0000
  H   H12       1.0  0.4770202486735684  0.11721737001707311  0.6616973212116479  1.0000
  H   H13       1.0  0.8708134907038456  0.660707043386999  0.18917153511616652  1.0000
  H   H14       1.0  0.3392922500119013  0.12918653260221194  0.3108293651558399  1.0000
  H   H15       1.0  0.12918730630421044  0.33929385133608747  0.8108292168160247  1.0000
  H   H16       1.0  0.6607071175068027  0.8708121928490447  0.6891709164811887  1.0000
  H   H17       1.0  0.8053469933521311  0.8759681967858557  0.042813891187108814  1.0000
  H   H18       1.0  0.12403039054380828  0.19465250326993563  0.45718602933724384  1.0000
  H   H19       1.0  0.19465412620922953  0.12403161297322642  0.957186078710052  1.0000
  H   H20       1.0  0.8759686566681851  0.8053473093966232  0.5428124363463382  1.0000
  H   H21       1.0  0.7704971275222549  0.0632316023218848  0.9174146452775818  1.0000
  H   H22       1.0  0.9367694154249406  0.22950186094870864  0.5825846221311579  1.0000
  H   H23       1.0  0.22950367173238823  0.9367692946524997  0.08258350866613991  1.0000
  H   H24       1.0  0.06322995284262593  0.7704968652529871  0.41741479350970684  1.0000
  H   H25       1.0  0.7451315713902459  0.2548694512440762  0.749999425252881  1.0000
  H   H26       1.0  0.2548671532684352  0.7451314463864875  0.24999982246572466  1.0000
  Pd  Pd1       1.0  0.5000006945832353  7.342738400001002e-07  0.9999979346202466  1.0000
  Pd  Pd2       1.0  6.660685726989842e-07  0.4999997188861159  0.49999990327297184  1.0000
  C   C1        1.0  0.4303909324206288  0.9051964868365729  0.8881818395090093  1.0000
  C   C2        1.0  0.09480269090654757  0.5696103992743033  0.6118180540653243  1.0000
  C   C3        1.0  0.5696098668340142  0.09480441013781161  0.11181631443471218  1.0000
  C   C4        1.0  0.9051967481223783  0.4303915826169629  0.3881818617989411  1.0000
  C   C5        1.0  0.45827983553157026  0.18295190468252542  0.8950540348180455  1.0000
  C   C6        1.0  0.8170479970775874  0.5417188206239486  0.6049467396882521  1.0000
  C   C7        1.0  0.5417209629742104  0.8170489915414265  0.10494498512183274  1.0000
  C   C8        1.0  0.1829520848113617  0.4582809890880102  0.3950542100944361  1.0000
  C   C9        1.0  0.17635920578572234  0.5919738054786522  0.9996814191922214  1.0000
  C   C10       1.0  0.4080247628181369  0.8236409912219642  0.5003187186651488  1.0000
  C   C11       1.0  0.8236408761032264  0.40802600423330665  0.0003195305904668717  1.0000
  C   C12       1.0  0.5919753198196743  0.1763588192404271  0.49968136512138284  1.0000
  C   C13       1.0  0.08331241415664442  0.5714633815321832  0.09866002209838601  1.0000
  C   C14       1.0  0.4285368242338522  0.9166867867102155  0.4013393821066062  1.0000
  C   C15       1.0  0.9166873466767242  0.42853751464464546  0.9013399777270126  1.0000
  C   C16       1.0  0.5714632599016837  0.08331302525304102  0.5986589696876125  1.0000
  C   C17       1.0  0.9478423047602786  0.6744121773397752  0.11434659381062322  1.0000
  C   C18       1.0  0.3255872132453987  0.052158366003673996  0.38565168338264044  1.0000
  C   C19       1.0  0.052159138103249264  0.3255865482057346  0.8856517280553649  1.0000
  C   C20       1.0  0.6744125483368323  0.9478425309235873  0.6143474504466014  1.0000
  C   C21       1.0  0.9107209689788432  0.7946111692080536  0.03181296431961301  1.0000
  C   C22       1.0  0.20538896124409686  0.08927957247917108  0.4681868376626498  1.0000
  C   C23       1.0  0.08927982952693721  0.20538972701589836  0.9681860556202652  1.0000
  C   C24       1.0  0.7946111213937144  0.9107202379832201  0.5318132461238818  1.0000
  C   C25       1.0  0.009423772536372669  0.8077682842457393  0.9346086690918799  1.0000
  C   C26       1.0  0.1922296859635394  0.9905763378961938  0.565391203987204  1.0000
  C   C27       1.0  0.9905755949823316  0.1922304412055169  0.06539161254514168  1.0000
  C   C28       1.0  0.8077707192275767  0.009422387602185703  0.43460809776430415  1.0000
  C   C29       1.0  0.9782098332265431  0.9309486121515465  0.8412511708160583  1.0000
  C   C30       1.0  0.06904901076364209  0.021789751497429705  0.6587486836436299  1.0000
  C   C31       1.0  0.021789534292167907  0.06905011329970989  0.15874911082096332  1.0000
  C   C32       1.0  0.9309493205803819  0.9782089754075686  0.3412508458865986  1.0000
  C   C33       1.0  0.8543823238781343  0.0520681926688908  0.8440135511145217  1.0000
  C   C34       1.0  0.9479312568144846  0.1456188033459043  0.6559857380346801  1.0000
  C   C35       1.0  0.1456191189853939  0.9479305328766189  0.15598477075145922  1.0000
  C   C36       1.0  0.05206882657218871  0.8543810078669195  0.34401347975569513  1.0000
  C   C37       1.0  0.8403618944106697  0.159638325323769  0.7499995981045161  1.0000
  C   C38       1.0  0.1596368302480116  0.8403625723067948  0.24999964961408952  1.0000
  N   N1        1.0  0.3850615270358517  0.8493238392578278  0.8246026513362568  1.0000
  N   N2        1.0  0.1506771123401549  0.6149389817352429  0.6753988787531214  1.0000
  N   N3        1.0  0.6149382337975169  0.150677056919001  0.17539734848914187  1.0000
  N   N4        1.0  0.8493236846679012  0.38506191298784387  0.32460187317907  1.0000
  N   N5        1.0  0.434029506201341  0.29034137978898406  0.8319974617825922  1.0000
  N   N6        1.0  0.7096607407233932  0.5659677410161592  0.6680022409354651  1.0000
  N   N7        1.0  0.5659702538831725  0.7096595156374049  0.16800340403896294  1.0000
  N   N8        1.0  0.2903410947059371  0.4340331545044905  0.33199666511505654  1.0000
  N   N9        1.0  0.1400182296179366  0.7063187984966746  0.9195037624974634  1.0000
  N   N10       1.0  0.293681322021733  0.8599804008055616  0.5804971088973616  1.0000
  N   N11       1.0  0.8599804935430199  0.29368209763302394  0.08049721721345551  1.0000
  N   N12       1.0  0.7063201193440705  0.14001832323908303  0.41950294496093227  1.0000
  N   N13       1.0  0.0799812652202618  0.9200176640273697  0.7499999302278085  1.0000
  N   N14       1.0  0.920017458689557  0.07998323285276142  0.2500001834869536  1.0000
  O   O1        1.0  0.4399625193885441  0.5600389865951813  0.7499991010070631  1.0000
  O   O2        1.0  0.5600382798660988  0.4399619103792107  0.24999905293666558  1.0000
