data_image0
_chemical_formula_structural       Cu6H20C24S4I2O4
_chemical_formula_sum              "Cu6 H20 C24 S4 I2 O4"
_cell_length_a       4.065086838071214
_cell_length_b       5.761364084211669
_cell_length_c       28.963766165818434
_cell_angle_alpha    89.99913028311548
_cell_angle_beta     90.00005729558687
_cell_angle_gamma    90.0005564143035

_space_group_name_H-M_alt    "P 1"
_space_group_IT_number       1

loop_
  _space_group_symop_operation_xyz
  'x, y, z'

loop_
  _atom_site_type_symbol
  _atom_site_label
  _atom_site_symmetry_multiplicity
  _atom_site_fract_x
  _atom_site_fract_y
  _atom_site_fract_z
  _atom_site_occupancy
  Cu  Cu1       1.0  0.059789019809038293  0.28627834806693647  0.9550169453569312  1.0000
  Cu  Cu2       1.0  0.5597647055317554  0.7136912113079321  0.5449819512502998  1.0000
  Cu  Cu3       1.0  0.4401507641296334  0.7137444441585572  0.4550288603469852  1.0000
  Cu  Cu4       1.0  0.9401808584944292  0.286266014041729  0.0449689313427228  1.0000
  Cu  Cu5       1.0  0.5000168392681844  0.004005050437164901  0.9999915364422804  1.0000
  Cu  Cu6       1.0  0.999953502802569  0.9959889955800706  0.5000146838534718  1.0000
  H   H1        1.0  0.2989841471666921  0.717501837974844  0.9099410226150937  1.0000
  H   H2        1.0  0.7990169221398773  0.28249748083668896  0.5900558422197903  1.0000
  H   H3        1.0  0.2010021149442665  0.28252956374995375  0.4099500709773877  1.0000
  H   H4        1.0  0.7010494420064219  0.717485849644881  0.0900514787404489  1.0000
  H   H5        1.0  0.8875764983806391  0.2525334417049834  0.8469748318192744  1.0000
  H   H6        1.0  0.38756961826754127  0.7474787628613841  0.65302895292119  1.0000
  H   H7        1.0  0.6124519958188941  0.7474513252067752  0.34699418499425855  1.0000
  H   H8        1.0  0.11247419354459251  0.2525425236889589  0.1530090763070646  1.0000
  H   H9        1.0  0.32859828853592893  0.4861393340387893  0.837866151926761  1.0000
  H   H10       1.0  0.8286241479404524  0.513870645141921  0.662128646267746  1.0000
  H   H11       1.0  0.17136049584549803  0.5138645293969902  0.3378675839842984  1.0000
  H   H12       1.0  0.6713835947912159  0.4861211308177503  0.1621294724754989  1.0000
  H   H13       1.0  0.915680218529957  0.021594451102402  0.7746669105557871  1.0000
  H   H14       1.0  0.4156983992687131  0.9784318727871549  0.7253354978081603  1.0000
  H   H15       1.0  0.5843183366213366  0.9783645308647098  0.2746769226725334  1.0000
  H   H16       1.0  0.08433599200304802  0.02161172736564511  0.2253218456048813  1.0000
  H   H17       1.0  0.43885663072573783  0.5184928980338057  0.7549759935574444  1.0000
  H   H18       1.0  0.9388654005896628  0.4815527114853354  0.7450170966426626  1.0000
  H   H19       1.0  0.06107953322341331  0.48148771438152954  0.2549813039003581  1.0000
  H   H20       1.0  0.5610837835678595  0.5184762008100636  0.2450160794900214  1.0000
  C   C1        1.0  0.5845903294048257  0.0023504982784246006  0.8827163967521656  1.0000
  C   C2        1.0  0.08459579208829382  0.9976314170326718  0.6172880281111759  1.0000
  C   C3        1.0  0.9154088525029705  0.9976662851594685  0.38272951249035  1.0000
  C   C4        1.0  0.4154576521505647  0.0023422316613093005  0.117271727674428  1.0000
  C   C5        1.0  0.43219683527090785  0.7853919482985109  0.8802562545819441  1.0000
  C   C6        1.0  0.9321872274563532  0.214624098581787  0.6197451207682221  1.0000
  C   C7        1.0  0.06781385435954232  0.21462260137730743  0.38026272595729443  1.0000
  C   C8        1.0  0.5678448693016662  0.7853778194776386  0.11973776583146642  1.0000
  C   C9        1.0  0.7624614092559696  0.08561941098160732  0.844704307928275  1.0000
  C   C10       1.0  0.2624465106289406  0.9143917537488807  0.6552991107244921  1.0000
  C   C11       1.0  0.7375498520231859  0.9143794131966846  0.3447138504122194  1.0000
  C   C12       1.0  0.23759485430535682  0.08561200409211982  0.155288741203556  1.0000
  C   C13       1.0  0.4477184376743892  0.6555059020842721  0.839658487905602  1.0000
  C   C14       1.0  0.9477326119450498  0.3444894455964018  0.6603401279904944  1.0000
  C   C15       1.0  0.0522723366671443  0.3444822046803894  0.3396659412938021  1.0000
  C   C16       1.0  0.5522972602212165  0.6555163513116682  0.16033385739194728  1.0000
  C   C17       1.0  0.7782934726550864  0.957133363687703  0.8041982328104496  1.0000
  C   C18       1.0  0.27829396717072535  0.04285884010158721  0.6958020811776179  1.0000
  C   C19       1.0  0.7217273934921592  0.04283033217905802  0.3042114687893899  1.0000
  C   C20       1.0  0.2217451726458037  0.9571505392587202  0.1957921559829359  1.0000
  C   C21       1.0  0.6165319269989028  0.7437840149952566  0.8014485572940799  1.0000
  C   C22       1.0  0.1165027693027412  0.25625023687093323  0.6985496581428521  1.0000
  C   C23       1.0  0.8834618636106271  0.2562024527403964  0.3014525374428629  1.0000
  C   C24       1.0  0.3834847272025499  0.7437867058036433  0.1985476616537412  1.0000
  S   S1        1.0  0.559147982496711  0.18725266568888804  0.9318588928200029  1.0000
  S   S2        1.0  0.059124097482119  0.8127290381303213  0.5681434562516756  1.0000
  S   S3        1.0  0.9407998250546258  0.8127881795239281  0.4318770655340316  1.0000
  S   S4        1.0  0.4408306628463806  0.18722575526536642  0.0681262504019742  1.0000
  I   I1        1.0  6.0692689380900016e-05  0.6783745180597764  0.999993572898063  1.0000
  I   I2        1.0  0.5000294101400654  0.3216205805619198  0.5000008253592227  1.0000
  O   O1        1.0  0.631987179472347  0.6272906722065203  0.7597373100015048  1.0000
  O   O2        1.0  0.1319767454139367  0.37274544392325754  0.7402598722302898  1.0000
  O   O3        1.0  0.8679793096093392  0.37269200059602536  0.2597457656099493  1.0000
  O   O4        1.0  0.36798393312269445  0.6272762008630864  0.2402527046446892  1.0000
