data_image0
_chemical_formula_structural       Mn2H40C52S4N8Cl4
_chemical_formula_sum              "Mn2 H40 C52 S4 N8 Cl4"
_cell_length_a       8.788571417415922
_cell_length_b       10.883928367913102
_cell_length_c       14.842373494790959
_cell_angle_alpha    74.12788271504311
_cell_angle_beta     82.79234659041576
_cell_angle_gamma    69.05303376180382

_space_group_name_H-M_alt    "P 1"
_space_group_IT_number       1

loop_
  _space_group_symop_operation_xyz
  'x, y, z'

loop_
  _atom_site_type_symbol
  _atom_site_label
  _atom_site_symmetry_multiplicity
  _atom_site_fract_x
  _atom_site_fract_y
  _atom_site_fract_z
  _atom_site_occupancy
  Mn  Mn1       1.0  0.500004955660003  0.4999945933796182  0.500002027842129  1.0000
  Mn  Mn2       1.0  6.504790974414302e-06  0.9999936240928661  0.49999903006153096  1.0000
  H   H1        1.0  0.8587389978325176  0.4549932963308692  0.4192156881339031  1.0000
  H   H2        1.0  0.1412656590712658  0.5450060236047422  0.5807826612042817  1.0000
  H   H3        1.0  0.022509511850749803  0.5797932886220564  0.30824522858684117  1.0000
  H   H4        1.0  0.9774950603545065  0.42020908875286284  0.6917552012139865  1.0000
  H   H5        1.0  0.6103306525379607  0.9482002826446774  0.29927918204555226  1.0000
  H   H6        1.0  0.3896690025948857  0.0518000840243573  0.7007240460033586  1.0000
  H   H7        1.0  0.46621006415479366  0.809281166994417  0.41355271886502  1.0000
  H   H8        1.0  0.5337912341083565  0.19071512173479732  0.5864478453619811  1.0000
  H   H9        1.0  0.04819872625115808  0.789211244560022  0.216029869210196  1.0000
  H   H10       1.0  0.9518020766033995  0.21078911679970966  0.7839726001126834  1.0000
  H   H11       1.0  0.9301851346510898  0.9348719383498293  0.25438563970410394  1.0000
  H   H12       1.0  0.06981558402705448  0.06513144953422062  0.7456128525613223  1.0000
  H   H13       1.0  0.7794648759056033  0.7521625030832128  0.12150258568539833  1.0000
  H   H14       1.0  0.2205262507528971  0.24784191498648062  0.8784964165591873  1.0000
  H   H15       1.0  0.6651203291687222  0.8593612833187905  0.9638751472087462  1.0000
  H   H16       1.0  0.3348757144461628  0.14064515232679753  0.036122402903337986  1.0000
  H   H17       1.0  0.7816658768014763  0.21505399040322  0.9558464049747143  1.0000
  H   H18       1.0  0.21834492901483316  0.7849443118396593  0.04415303750460704  1.0000
  H   H19       1.0  0.8911224213763944  0.1090975567584138  0.1155176656388548  1.0000
  H   H20       1.0  0.10888805825435098  0.8908987135413612  0.8844815401844315  1.0000
  H   H21       1.0  0.8390839978689683  0.7866646452081343  0.4953428005761538  1.0000
  H   H22       1.0  0.16090695945048591  0.21334588430518417  0.5046596895359413  1.0000
  H   H23       1.0  0.6887950798062263  0.6431143602672194  0.598917385591683  1.0000
  H   H24       1.0  0.3111952249100369  0.35689211909988233  0.40108732343949777  1.0000
  H   H25       1.0  0.7192470225888243  0.8178539456074884  0.821560301911326  1.0000
  H   H26       1.0  0.2807701005508534  0.1821372824590242  0.17844751476626186  1.0000
  H   H27       1.0  0.864889650581461  0.9560883960529977  0.7082239442611638  1.0000
  H   H28       1.0  0.135123534390587  0.0439068965269485  0.2917833422858749  1.0000
  H   H29       1.0  0.6055001931593367  0.5488048841338439  0.7561009615927644  1.0000
  H   H30       1.0  0.39450429515957086  0.4512005025903959  0.24389212586165604  1.0000
  H   H31       1.0  0.4688127180822618  0.695710429747713  0.7862467143500423  1.0000
  H   H32       1.0  0.5311804625326246  0.3042888883209542  0.2137484533238094  1.0000
  H   H33       1.0  0.4577025300693335  0.7221552887492565  0.940802915955885  1.0000
  H   H34       1.0  0.5422924509284641  0.2778480707213262  0.05918860101505887  1.0000
  H   H35       1.0  0.5553255554141501  0.6343001656393953  0.10369197596966727  1.0000
  H   H36       1.0  0.44465901191183116  0.36570626813924895  0.8963023924780842  1.0000
  H   H37       1.0  0.9767018085923168  0.3360674457472541  0.013084108612503066  1.0000
  H   H38       1.0  0.023279568793931584  0.6639298831663609  0.9869163904922403  1.0000
  H   H39       1.0  0.8781204352699132  0.4245334346115044  0.8506562492904379  1.0000
  H   H40       1.0  0.12186438522345366  0.5754638818091988  0.1493426466940022  1.0000
  C   C1        1.0  0.8218774415109206  0.24555732766262395  0.6006786169654604  1.0000
  C   C2        1.0  0.17813887293322483  0.7544216622159539  0.3993189443564161  1.0000
  C   C3        1.0  0.32561181075722345  0.7474663018543238  0.5973445409827035  1.0000
  C   C4        1.0  0.6744017126608668  0.252516781578379  0.4026584620604865  1.0000
  C   C5        1.0  0.8085006068069519  0.5647742618801529  0.39150265755733926  1.0000
  C   C6        1.0  0.19150290243314308  0.43522505992977073  0.6084957774490858  1.0000
  C   C7        1.0  0.8984344002385922  0.6348651185581176  0.3284272408211706  1.0000
  C   C8        1.0  0.10156943512905062  0.3651362386299084  0.6715721038990806  1.0000
  C   C9        1.0  0.8296903275884161  0.7752439705822171  0.29293497845092986  1.0000
  C   C10       1.0  0.17031080168376173  0.22475840898061958  0.7070650352968286  1.0000
  C   C11       1.0  0.6705499140415083  0.8389630215564595  0.32394242120639655  1.0000
  C   C12       1.0  0.32945244736085033  0.16103631243276342  0.6760581186416417  1.0000
  C   C13       1.0  0.5893853303213701  0.7619684870131921  0.387612742196616  1.0000
  C   C14       1.0  0.41061744190706406  0.2380298249148255  0.6123866269025982  1.0000
  C   C15       1.0  0.9216611015972659  0.8557229715094293  0.22436190141105072  1.0000
  C   C16       1.0  0.07834125986310167  0.14427635904479533  0.7756379653791967  1.0000
  C   C17       1.0  0.8458656973471648  0.9221783805173658  0.1294373994838621  1.0000
  C   C18       1.0  0.15414002263781865  0.07782398811325211  0.8705615985331504  1.0000
  C   C19       1.0  0.7817233601678449  0.8534209058999664  0.08540051399642572  1.0000
  C   C20       1.0  0.21827555841745283  0.1465784234071776  0.9145982636829615  1.0000
  C   C21       1.0  0.7175768631082488  0.9130232275790817  0.9962752698679153  1.0000
  C   C22       1.0  0.28242688785093145  0.08698116987325478  0.0037227900260319025  1.0000
  C   C23       1.0  0.7187974087228923  0.042919109809879806  0.9500693443514407  1.0000
  C   C24       1.0  0.28120839578658513  0.9570802116864313  0.04992959237629442  1.0000
  C   C25       1.0  0.7814292753375228  0.11369413444879942  0.9924649584926398  1.0000
  C   C26       1.0  0.21858062470821685  0.8863092350058039  0.007532175369078625  1.0000
  C   C27       1.0  0.8430600648235183  0.05331159958127069  0.08211715780586103  1.0000
  C   C28       1.0  0.15694853024790226  0.9466836558409072  0.9178817216628729  1.0000
  C   C29       1.0  0.8092006282056302  0.7908855630111377  0.5682455553848129  1.0000
  C   C30       1.0  0.19079164571048318  0.20911887722925127  0.431758072596061  1.0000
  C   C31       1.0  0.7258155401356203  0.7107313699454564  0.626553128711798  1.0000
  C   C32       1.0  0.2741795971285582  0.28928016726184325  0.37344884336057754  1.0000
  C   C33       1.0  0.6905198313246996  0.717840589972653  0.7200206097438837  1.0000
  C   C34       1.0  0.3094747380928382  0.28216383621412433  0.2799808277271438  1.0000
  C   C35       1.0  0.7415985134022589  0.8081214275029042  0.7495775068192927  1.0000
  C   C36       1.0  0.258409501329993  0.19188097172909832  0.2504280504391332  1.0000
  C   C37       1.0  0.8240003192767701  0.8850594294828796  0.6868742590582855  1.0000
  C   C38       1.0  0.1760044214553602  0.11493688453841601  0.31313210568409733  1.0000
  C   C39       1.0  0.5989517067478259  0.6330724886588045  0.7854418610892893  1.0000
  C   C40       1.0  0.4010444214495619  0.36693089641746474  0.2145549546757337  1.0000
  C   C41       1.0  0.659609809392265  0.5793753315494357  0.8841400823083774  1.0000
  C   C42       1.0  0.34038337110659717  0.4206239933892348  0.1158564314810491  1.0000
  C   C43       1.0  0.572023087189045  0.6377639136264007  0.9562381904709057  1.0000
  C   C44       1.0  0.42796230155705217  0.3622404897698246  0.043756528710360953  1.0000
  C   C45       1.0  0.625985162571446  0.5888574786973493  0.048015658123191  1.0000
  C   C46       1.0  0.37400293221210756  0.41114590575906357  0.9519790650883522  1.0000
  C   C47       1.0  0.7711859913021825  0.47960380285163506  0.06782714535316359  1.0000
  C   C48       1.0  0.22879783878009624  0.5204016347851025  0.9321708494185329  1.0000
  C   C49       1.0  0.8626762814396542  0.42047857102334524  0.9969719657152751  1.0000
  C   C50       1.0  0.13731189757832846  0.5795217834737515  0.003026061495937343  1.0000
  C   C51       1.0  0.8061573861118202  0.4707521497730627  0.9058394814319257  1.0000
  C   C52       1.0  0.19383194056986502  0.529248202849729  0.0941584601110463  1.0000
  S   S1        1.0  0.7017333852796667  0.3761973684411188  0.6368528152003419  1.0000
  S   S2        1.0  0.29827340975692357  0.6237938249691554  0.3631456766245619  1.0000
  S   S3        1.0  0.23926604790969458  0.8937815630309843  0.6216870824197754  1.0000
  S   S4        1.0  0.760745252793086  0.10621269749637463  0.3783165124837637  1.0000
  N   N1        1.0  0.9093073578020212  0.14935045214385673  0.574625520836932  1.0000
  N   N2        1.0  0.0906947615911875  0.8506438233779363  0.4253787594125242  1.0000
  N   N3        1.0  0.3893517201639511  0.6407303080469475  0.5788764648238782  1.0000
  N   N4        1.0  0.6106476086092911  0.3592680369839769  0.42112854574236996  1.0000
  N   N5        1.0  0.6561180671308546  0.626506343673448  0.42088424037904554  1.0000
  N   N6        1.0  0.34388667423941394  0.3734899325628546  0.5791147207276524  1.0000
  N   N7        1.0  0.8586397826729025  0.8769168948496641  0.5973310282449871  1.0000
  N   N8        1.0  0.14136511519581058  0.12308754538335623  0.402675695731986  1.0000
  Cl  Cl1       1.0  0.6407746888166628  0.1189874124653656  0.8387777020038027  1.0000
  Cl  Cl2       1.0  0.35923217877400737  0.8810149577259454  0.16122188340276009  1.0000
  Cl  Cl3       1.0  0.8381981101781618  0.4155378376651627  0.18185062295535195  1.0000
  Cl  Cl4       1.0  0.16178268768109658  0.5844665869682829  0.8181471311300256  1.0000
