data_image0
_chemical_formula_structural       Cd2H28C32S4N8O4
_chemical_formula_sum              "Cd2 H28 C32 S4 N8 O4"
_cell_length_a       5.7752470001963285
_cell_length_b       11.394673986352965
_cell_length_c       13.766600135476939
_cell_angle_alpha    90.0006948850738
_cell_angle_beta     99.54565059612051
_cell_angle_gamma    90.00097148000495

_space_group_name_H-M_alt    "P 1"
_space_group_IT_number       1

loop_
  _space_group_symop_operation_xyz
  'x, y, z'

loop_
  _atom_site_type_symbol
  _atom_site_label
  _atom_site_symmetry_multiplicity
  _atom_site_fract_x
  _atom_site_fract_y
  _atom_site_fract_z
  _atom_site_occupancy
  Cd  Cd1       1.0  0.5000056884997761  0.5000046346525977  4.01713898409288e-06  1.0000
  Cd  Cd2       1.0  0.49998761009838694  3.774198809499989e-06  0.5000071892094623  1.0000
  H   H1        1.0  0.12217061265713622  0.2878819491245963  0.9956342326819011  1.0000
  H   H2        1.0  0.8778263639698524  0.7878846090812601  0.5043673997495545  1.0000
  H   H3        1.0  0.8778539856772982  0.7121129631226423  0.004367762911435594  1.0000
  H   H4        1.0  0.12215785184085351  0.21211556840969334  0.4956316298746017  1.0000
  H   H5        1.0  0.09148311169769131  0.07708499581739402  0.03662807023168569  1.0000
  H   H6        1.0  0.9085019171602655  0.5770831542421532  0.46337100466384834  1.0000
  H   H7        1.0  0.9085081107379765  0.922923080205358  0.9633722001911166  1.0000
  H   H8        1.0  0.09149637765992219  0.4229284321383062  0.5366276057979958  1.0000
  H   H9        1.0  0.8179568250072791  0.09186757107912061  0.17923695872421055  1.0000
  H   H10       1.0  0.18203878807739932  0.5918643911309402  0.3207628030166631  1.0000
  H   H11       1.0  0.18205385877243432  0.9081299735286664  0.8207582034453791  1.0000
  H   H12       1.0  0.8179401604539082  0.4081392967231636  0.679235839664386  1.0000
  H   H13       1.0  0.8178978945439044  0.30240720065378923  0.1320511507982118  1.0000
  H   H14       1.0  0.18210714277594064  0.8024021886348294  0.3679507433610496  1.0000
  H   H15       1.0  0.1821233073620689  0.6975877112824305  0.8679455103570958  1.0000
  H   H16       1.0  0.8178892811579959  0.19759711156593343  0.6320528150296383  1.0000
  H   H17       1.0  0.6090106311696388  0.7822952087138829  0.19566357154324973  1.0000
  H   H18       1.0  0.3909752001385912  0.2822874915446789  0.3043293064970526  1.0000
  H   H19       1.0  0.390987647170931  0.21769970324950086  0.8043357645966509  1.0000
  H   H20       1.0  0.6090020583761132  0.7177056648981122  0.6956663066442417  1.0000
  H   H21       1.0  0.6618803090893622  0.9123015137967555  0.2695944941440658  1.0000
  H   H22       1.0  0.3381075797826441  0.4123035450349946  0.23040369921010745  1.0000
  H   H23       1.0  0.3381038573845175  0.0876942757985759  0.7304067112607269  1.0000
  H   H24       1.0  0.6619029888987457  0.5876931222482753  0.7695965395238318  1.0000
  H   H25       1.0  0.8042775890806908  0.894523388156557  0.16673548122047774  1.0000
  H   H26       1.0  0.195708431643169  0.3945211974766707  0.33326501041108963  1.0000
  H   H27       1.0  0.19572236280472313  0.1054688912130288  0.8332676100408063  1.0000
  H   H28       1.0  0.804279345013491  0.605476347118497  0.6667321015230668  1.0000
  C   C1        1.0  0.04165787111922731  0.5554549289734753  0.1202786613049156  1.0000
  C   C2        1.0  0.9583322625466764  0.0554552921837512  0.379724889539787  1.0000
  C   C3        1.0  0.9583650372378403  0.44454700392230967  0.8797203042665345  1.0000
  C   C4        1.0  0.0416536761437243  0.9445457630060262  0.6202757194492178  1.0000
  C   C5        1.0  0.2724140251257836  0.24160842309417768  0.036681251773408995  1.0000
  C   C6        1.0  0.7275979442695544  0.7416081935885187  0.4633165207094122  1.0000
  C   C7        1.0  0.727612378311804  0.7583926322709333  0.9633186969399715  1.0000
  C   C8        1.0  0.2723880601921564  0.25839373904511825  0.5366811873753504  1.0000
  C   C9        1.0  0.2556640747378723  0.12370189743010938  0.059953836800104895  1.0000
  C   C10       1.0  0.7443280376298063  0.6237010397847627  0.4400497198689806  1.0000
  C   C11       1.0  0.7443357620727583  0.8763000358508749  0.9400543307362594  1.0000
  C   C12       1.0  0.25566495698902975  0.37629738258155504  0.5599499545478536  1.0000
  C   C13       1.0  0.452394153380915  0.06568302301594289  0.11122582524406968  1.0000
  C   C14       1.0  0.5476173746962304  0.5656876338306773  0.38876638223309357  1.0000
  C   C15       1.0  0.5476201076910173  0.934313643862261  0.8887666939672768  1.0000
  C   C16       1.0  0.4523740285894604  0.4343134209305289  0.6112259109621759  1.0000
  C   C17       1.0  0.6584400365087221  0.1307879515267629  0.13861299176343067  1.0000
  C   C18       1.0  0.3415503353290604  0.6307830084248138  0.36139077200510167  1.0000
  C   C19       1.0  0.3415651662412102  0.8692131039613429  0.8613912113235072  1.0000
  C   C20       1.0  0.6584409692967199  0.36921541376610634  0.6386058725826942  1.0000
  C   C21       1.0  0.660608134932943  0.24881533246084334  0.11210834267916427  1.0000
  C   C22       1.0  0.3394020780297211  0.7488106478213223  0.3878903554939298  1.0000
  C   C23       1.0  0.3394095554560507  0.7511830898548056  0.8878880604819344  1.0000
  C   C24       1.0  0.660592705236205  0.25118777448170704  0.6121079974317282  1.0000
  C   C25       1.0  0.4337274986280591  0.9364769089070674  0.1328505879551969  1.0000
  C   C26       1.0  0.5662952847135331  0.43646652388041934  0.36716336100396046  1.0000
  C   C27       1.0  0.5662686951210034  0.06352590226261871  0.8671631234195514  1.0000
  C   C28       1.0  0.43373979885463143  0.5635222453628471  0.6328415841115811  1.0000
  C   C29       1.0  0.6393467811076475  0.8769754843293923  0.19417108413087894  1.0000
  C   C30       1.0  0.36064098267893036  0.37697024707329524  0.3058275996757657  1.0000
  C   C31       1.0  0.36065139858478557  0.12302206068165591  0.8058326032569099  1.0000
  C   C32       1.0  0.6393485168495731  0.6230246648087315  0.6941710917196673  1.0000
  S   S1        1.0  0.8054569113686584  0.5543357181587963  0.17046799135601987  1.0000
  S   S2        1.0  0.1945474771202456  0.0543260837442929  0.32952722497965675  1.0000
  S   S3        1.0  0.19456952494968496  0.44566358192076894  0.8295305069655041  1.0000
  S   S4        1.0  0.8054402666595806  0.9456749713424131  0.6704713372981386  1.0000
  N   N1        1.0  0.213828282843096  0.5585605688609335  0.08434929437088098  1.0000
  N   N2        1.0  0.7861953557365097  0.05856220387210698  0.41565073409420705  1.0000
  N   N3        1.0  0.7861963812705  0.4414387312421439  0.9156498002217858  1.0000
  N   N4        1.0  0.213788827191479  0.9414388513013988  0.5843497459459073  1.0000
  N   N5        1.0  0.47228089371868265  0.3033809218046812  0.061541479069617794  1.0000
  N   N6        1.0  0.5277277910144847  0.8033741130329093  0.438454817783544  1.0000
  N   N7        1.0  0.5277420146403458  0.6966218886940893  0.9384574864777234  1.0000
  N   N8        1.0  0.47226531870464333  0.19662606426092558  0.561539780044832  1.0000
  O   O1        1.0  0.2507843871712367  0.883858362124016  0.10047014708443668  1.0000
  O   O2        1.0  0.749184258455891  0.38386573568633514  0.3995194876155351  1.0000
  O   O3        1.0  0.7492050794922137  0.11614532586749962  0.8995299945100043  1.0000
  O   O4        1.0  0.2507877328108066  0.6161449727675005  0.6004757381969482  1.0000
