data_image0
_chemical_formula_structural       Zr6H42C88S2Cl10O38
_chemical_formula_sum              "Zr6 H42 C88 S2 Cl10 O38"
_cell_length_a       19.08561536428978
_cell_length_b       19.055702377687613
_cell_length_c       19.078925203280022
_cell_angle_alpha    59.81245797682084
_cell_angle_beta     59.90331095310794
_cell_angle_gamma    60.032020471794276

_space_group_name_H-M_alt    "P 1"
_space_group_IT_number       1

loop_
  _space_group_symop_operation_xyz
  'x, y, z'

loop_
  _atom_site_type_symbol
  _atom_site_label
  _atom_site_symmetry_multiplicity
  _atom_site_fract_x
  _atom_site_fract_y
  _atom_site_fract_z
  _atom_site_occupancy
  Zr  Zr1       1.0  0.9034520056104115  0.41043373340796996  0.5938686707250581  1.0000
  Zr  Zr2       1.0  0.09234541652260483  0.5930363724090028  0.41132103733044534  1.0000
  Zr  Zr3       1.0  0.08927230236545829  0.4069132515932451  0.596660434416087  1.0000
  Zr  Zr4       1.0  0.907362243952349  0.5957635128122475  0.40767053868724884  1.0000
  Zr  Zr5       1.0  0.9053422499394087  0.5942530630207161  0.595067394630874  1.0000
  Zr  Zr6       1.0  0.09079266313271725  0.40882718882099306  0.4097722899815253  1.0000
  H   H1        1.0  0.9225543360874442  0.4281520966520914  0.721799593706791  1.0000
  H   H2        1.0  0.927587425845722  0.7209335545428456  0.42888230171310204  1.0000
  H   H3        1.0  0.2168813883991946  0.4261419996719694  0.4319444196165562  1.0000
  H   H4        1.0  0.9252747536280026  0.43109696749832677  0.4268619096653196  1.0000
  H   H5        1.0  0.3492414159063487  0.5751358144241292  0.2109594666756818  1.0000
  H   H6        1.0  0.7068689258091114  0.36971247556435566  0.852637192217884  1.0000
  H   H7        1.0  0.6349490760721395  0.6431391399308379  0.7827789973770789  1.0000
  H   H8        1.0  0.5041536940621185  0.6411309469540998  0.9134359171949668  1.0000
  H   H9        1.0  0.2803905947962945  0.43914714771497637  0.14377012544274226  1.0000
  H   H10       1.0  0.41000110691485486  0.4415128946459034  0.01185532245485622  1.0000
  H   H11       1.0  0.0697596941437768  0.8523458622584028  0.369956563883825  1.0000
  H   H12       1.0  0.8639333558061822  0.21137681806219896  0.57501513697877  1.0000
  H   H13       1.0  0.13602801414006652  0.14331006292187712  0.43910348133271526  1.0000
  H   H14       1.0  0.13519007378715744  0.012121698354704304  0.4407839890880893  1.0000
  H   H15       1.0  0.9379256317478518  0.7833088785675739  0.6433584656314861  1.0000
  H   H16       1.0  0.9394829863785645  0.91458958733682  0.6406685861738524  1.0000
  H   H17       1.0  0.34926256062869515  0.2115451455249725  0.37108571247903643  1.0000
  H   H18       1.0  0.7055504748016688  0.8524894084682442  0.5757555705857055  1.0000
  H   H19       1.0  0.6387628641131473  0.7839718742494312  0.439237872875921  1.0000
  H   H20       1.0  0.5058153348984433  0.9120166978787692  0.443560601566574  1.0000
  H   H21       1.0  0.2758808694874517  0.13444141349986438  0.6461183394779368  1.0000
  H   H22       1.0  0.40468782500713735  0.003843374259936698  0.6447492998448751  1.0000
  H   H23       1.0  0.866683836260343  0.5759835755327744  0.852767839731058  1.0000
  H   H24       1.0  0.06902403689334594  0.3705078157078745  0.21159716342972956  1.0000
  H   H25       1.0  0.9445623934736388  0.6454934655660267  0.13497330981753183  1.0000
  H   H26       1.0  0.9479061630023509  0.6445569955653524  0.0040770289386314815  1.0000
  H   H27       1.0  0.13833609569044833  0.43865537823272394  0.7842800561820055  1.0000
  H   H28       1.0  0.13935324436153002  0.4431840939192783  0.9119786265246929  1.0000
  H   H29       1.0  0.12346950795905097  0.8175566129597057  0.1692112472807352  1.0000
  H   H30       1.0  0.19017681045318832  0.9280546625199121  0.0512375409498061  1.0000
  H   H31       1.0  0.9061887245896472  0.8039197796617257  0.1701365540165508  1.0000
  H   H32       1.0  0.8900741717943319  0.16826125126355154  0.8182645963901718  1.0000
  H   H33       1.0  0.8309719268138239  0.050215466078149945  0.9286535507742855  1.0000
  H   H34       1.0  0.11979177485080351  0.16949616990240912  0.8049184321818643  1.0000
  H   H35       1.0  0.35134499537843317  0.3644808153919287  0.5769333060307956  1.0000
  H   H36       1.0  0.7073513008630458  0.5760531412307657  0.3652979668401527  1.0000
  H   H37       1.0  0.6382398943753317  0.44392150244009804  0.6388279274393084  1.0000
  H   H38       1.0  0.5079262843877713  0.4427068863493275  0.6395214802549488  1.0000
  H   H39       1.0  0.27919057655757495  0.6380245848674874  0.4449674811457525  1.0000
  H   H40       1.0  0.41005477097328225  0.6385529062979528  0.4438665637477185  1.0000
  H   H41       1.0  0.1616456361382177  0.2047125872499079  0.8666409533437616  1.0000
  H   H42       1.0  0.7672291850617158  0.8655732126348565  0.20528168981734027  1.0000
  C   C1        1.0  0.7577927154554512  0.5055660053112873  0.7327990692330246  1.0000
  C   C2        1.0  0.0034976446927432133  0.7322952536332463  0.5062442276162711  1.0000
  C   C3        1.0  0.23081417630558576  0.505334711780904  0.2649957755620135  1.0000
  C   C4        1.0  0.9987786122215283  0.26430820692295487  0.5059906805510933  1.0000
  C   C5        1.0  0.9988050455161356  0.2602894208964202  0.7337419918517013  1.0000
  C   C6        1.0  0.7595359006637211  0.509586011386773  0.500915386827721  1.0000
  C   C7        1.0  0.007398290333369879  0.7329030293477885  0.2610608839944391  1.0000
  C   C8        1.0  0.2300876875087213  0.5001471122916995  0.5104478010710025  1.0000
  C   C9        1.0  0.999868595328401  0.5036749440918129  0.7357520653931643  1.0000
  C   C10       1.0  0.22794247793542152  0.26070095811373045  0.5070843138110419  1.0000
  C   C11       1.0  0.0047746494522087814  0.5061338585732641  0.26140300266053623  1.0000
  C   C12       1.0  0.7609001115939482  0.7350686494469012  0.5042359568965722  1.0000
  C   C13       1.0  0.3071104777456883  0.5071573457140487  0.1851100643556761  1.0000
  C   C14       1.0  0.6786213443913026  0.5064850882323099  0.8098498595248457  1.0000
  C   C15       1.0  0.36301933228254063  0.5454191741511208  0.16743800526861455  1.0000
  C   C16       1.0  0.4373769088137252  0.5430801531917026  0.09566837424356574  1.0000
  C   C17       1.0  0.662645495105444  0.42905872936198375  0.8664976691063018  1.0000
  C   C18       1.0  0.5916804191645114  0.4277637577770363  0.9416237712607438  1.0000
  C   C19       1.0  0.6219077647100734  0.5831057447811007  0.8271956924837907  1.0000
  C   C20       1.0  0.5495330923828307  0.5814770701416448  0.9005198987661058  1.0000
  C   C21       1.0  0.32437382130885334  0.4688276775449367  0.1293766256166008  1.0000
  C   C22       1.0  0.3970627099419204  0.46973935612683687  0.056353168181800514  1.0000
  C   C23       1.0  0.4558043949673305  0.5056495651879442  0.03806593923706443  1.0000
  C   C24       1.0  0.5330022965221134  0.5041894471817585  0.9600476948998562  1.0000
  C   C25       1.0  0.004049372557716385  0.8098879883981382  0.5067621088947687  1.0000
  C   C26       1.0  0.9999972273824368  0.184983797284353  0.5071985971515786  1.0000
  C   C27       1.0  0.04057221351807557  0.8665449205701561  0.42915475288958044  1.0000
  C   C28       1.0  0.03732228558249068  0.9420282382919182  0.42746032168589904  1.0000
  C   C29       1.0  0.9232502056294934  0.1678338220549875  0.5451564821531463  1.0000
  C   C30       1.0  0.9226000341803415  0.09649746427913178  0.5424081429507267  1.0000
  C   C31       1.0  0.07657521819276528  0.12927106775887856  0.4686119145420591  1.0000
  C   C32       1.0  0.07557514343042028  0.056684170107629946  0.4690995284652786  1.0000
  C   C33       1.0  0.9664508070571504  0.8277060109590124  0.5831762297544927  1.0000
  C   C34       1.0  0.9667969798571933  0.901380637145017  0.5811546054804068  1.0000
  C   C35       1.0  0.0010232237612014788  0.9608135953204027  0.5036898519650633  1.0000
  C   C36       1.0  0.9989901670871432  0.03880286294591434  0.5049235601370298  1.0000
  C   C37       1.0  0.30430079362314183  0.18095681607544375  0.5085259835791618  1.0000
  C   C38       1.0  0.6803743427727441  0.8106318710525997  0.5070048209280953  1.0000
  C   C39       1.0  0.36176903402451194  0.16605566833731447  0.43098571138935426  1.0000
  C   C40       1.0  0.4362289407090075  0.09460263624905  0.43032337526964426  1.0000
  C   C41       1.0  0.6619622741657094  0.8658755742869672  0.5463077788907853  1.0000
  C   C42       1.0  0.5892533193230137  0.9392444822632127  0.5454519511589664  1.0000
  C   C43       1.0  0.6242477034595666  0.8276466772595509  0.4692436969300714  1.0000
  C   C44       1.0  0.5504276219463338  0.8993458611916335  0.47149752074248824  1.0000
  C   C45       1.0  0.3202620037078533  0.12268757985108172  0.585728625644812  1.0000
  C   C46       1.0  0.39306890137524436  0.049904216436090096  0.5845312609489923  1.0000
  C   C47       1.0  0.453316250147637  0.03443851114380445  0.5072663808160199  1.0000
  C   C48       1.0  0.5314486737795932  0.9574438303325364  0.5084188267770385  1.0000
  C   C49       1.0  0.002344747129655061  0.5067422007030443  0.8109947807469097  1.0000
  C   C50       1.0  0.007028862735779558  0.5078761909887463  0.1813555406552396  1.0000
  C   C51       1.0  0.9263798791658572  0.5463809897015183  0.8660993766942724  1.0000
  C   C52       1.0  0.9268122102941021  0.545684126085618  0.9392746713686717  1.0000
  C   C53       1.0  0.04210266087869745  0.43048824638174915  0.1661863794550129  1.0000
  C   C54       1.0  0.03988551354620991  0.430038407201387  0.09454265470301945  1.0000
  C   C55       1.0  0.9723154238184648  0.5851924399714789  0.1230690999347031  1.0000
  C   C56       1.0  0.9735767523236448  0.5842327670142422  0.05011602341421893  1.0000
  C   C57       1.0  0.07929781348840235  0.4688959767293638  0.8278759369993338  1.0000
  C   C58       1.0  0.07940409771268266  0.471267248173639  0.8993927501777889  1.0000
  C   C59       1.0  0.003501292418313571  0.5084023684842265  0.9574609210791465  1.0000
  C   C60       1.0  0.005979241827894785  0.5070836450878315  0.03445534937225855  1.0000
  C   C61       1.0  0.07539314866350834  0.8439545710084386  0.13959172383178486  1.0000
  C   C62       1.0  0.07655994160267458  0.9153618220547839  0.06370334939218462  1.0000
  C   C63       1.0  0.14067808061692233  0.9548411013452519  0.023248591018734797  1.0000
  C   C64       1.0  0.9509808301442246  0.8383684602868724  0.14002490095721482  1.0000
  C   C65       1.0  0.9483113965888351  0.9108306053788907  0.06545270826471478  1.0000
  C   C66       1.0  0.8837505313834271  0.9494254644468609  0.026302357393070654  1.0000
  C   C67       1.0  0.9413426743148182  0.13870617596543858  0.8446802771440785  1.0000
  C   C68       1.0  0.9446832712496088  0.06279420182514175  0.9161072412353589  1.0000
  C   C69       1.0  0.8816355826758979  0.022259175916111984  0.9554910232420754  1.0000
  C   C70       1.0  0.07072248646801438  0.13930031313721983  0.8393020205294591  1.0000
  C   C71       1.0  0.07552139093618863  0.06473514721974995  0.9117480479907841  1.0000
  C   C72       1.0  0.14057937578329668  0.02567756841904161  0.9504199332878542  1.0000
  C   C73       1.0  0.01220897981441043  0.8065567860587917  0.17786533080644762  1.0000
  C   C74       1.0  0.011919633777352976  0.9507745569311794  0.02644903093753455  1.0000
  C   C75       1.0  0.003547797718340515  0.1770820281603633  0.8073739104980574  1.0000
  C   C76       1.0  0.011076965353147769  0.02563651362029164  0.9516151470750174  1.0000
  C   C77       1.0  0.30724418155292443  0.501318700148886  0.5112195650950112  1.0000
  C   C78       1.0  0.6804348830219169  0.5103397913135195  0.5021437412247066  1.0000
  C   C79       1.0  0.36442764815068796  0.4245395822723736  0.5474471605180112  1.0000
  C   C80       1.0  0.4394195361420899  0.42475845077071717  0.543203761890531  1.0000
  C   C81       1.0  0.6637394943071301  0.5465504329095195  0.42539576231216353  1.0000
  C   C82       1.0  0.592764619293888  0.5422217555088904  0.4257050134650413  1.0000
  C   C83       1.0  0.624511909126511  0.47210339499861914  0.5794406096482944  1.0000
  C   C84       1.0  0.5524082983570653  0.47097970988955506  0.5793122730258132  1.0000
  C   C85       1.0  0.32412470025882817  0.5785886948540762  0.47309475142024837  1.0000
  C   C86       1.0  0.39749310900769075  0.5783634636104721  0.47204610645251677  1.0000
  C   C87       1.0  0.45742255189214387  0.5018447736031247  0.5059446040219057  1.0000
  C   C88       1.0  0.5350036019478708  0.5049038463232804  0.5028382782066884  1.0000
  S   S1        1.0  0.22497129778923172  0.06771442238584784  0.9052030932730801  1.0000
  S   S2        1.0  0.8026376430566415  0.9041223760992875  0.06823809407434554  1.0000
  Cl  Cl1       1.0  0.5079653496577379  0.5845335330159853  0.08206923795003708  1.0000
  Cl  Cl2       1.0  0.5804322158529159  0.3282808145654598  0.013152002402136907  1.0000
  Cl  Cl3       1.0  0.07634452415115332  0.01345888492554794  0.3277818836349197  1.0000
  Cl  Cl4       1.0  0.8239530989329041  0.08341998456400285  0.5835541591070667  1.0000
  Cl  Cl5       1.0  0.5090654277749068  0.08454388276994954  0.331034602243207  1.0000
  Cl  Cl6       1.0  0.5745053752026622  0.009159676727883112  0.5882173359717625  1.0000
  Cl  Cl7       1.0  0.8290433091877459  0.5889661013636881  0.00900743304261196  1.0000
  Cl  Cl8       1.0  0.0765928983155888  0.33083430608058956  0.08423058049407214  1.0000
  Cl  Cl9       1.0  0.5116141833322061  0.3262885477909876  0.5820668681331042  1.0000
  Cl  Cl10      1.0  0.580051398000286  0.581070743886059  0.32729629336292015  1.0000
  O   O1        1.0  0.7905246562306515  0.44336593387161133  0.7050277940964162  1.0000
  O   O2        1.0  0.06101189636186154  0.7042951456890023  0.4442699488725522  1.0000
  O   O3        1.0  0.2039664181924722  0.5613760916263145  0.2989003883600175  1.0000
  O   O4        1.0  0.9358640867972027  0.2980220010237318  0.5622567718862328  1.0000
  O   O5        1.0  0.05565171613714175  0.2931493076537706  0.7071613712842861  1.0000
  O   O6        1.0  0.7935975631167053  0.566087533732748  0.4383420348454477  1.0000
  O   O7        1.0  0.9443163856218747  0.7062644906142808  0.2938563984937515  1.0000
  O   O8        1.0  0.2020863885456805  0.43758574925484334  0.5669447741033622  1.0000
  O   O9        1.0  0.9377078428890683  0.560549133915586  0.7078353984877306  1.0000
  O   O10       1.0  0.20125291955677943  0.2952425079986227  0.4437043791831385  1.0000
  O   O11       1.0  0.06015852065976195  0.4426465112967931  0.29606225805487435  1.0000
  O   O12       1.0  0.793961788745193  0.7070195581818408  0.5612643316543354  1.0000
  O   O13       1.0  0.1959267202546115  0.28965653742827874  0.568175938031807  1.0000
  O   O14       1.0  0.9466060985828975  0.5671215375763832  0.2904692781558039  1.0000
  O   O15       1.0  0.7916105462089503  0.7050854843315264  0.44412583220707796  1.0000
  O   O16       1.0  0.05917890878144772  0.44346667855755584  0.7058885875563162  1.0000
  O   O17       1.0  0.9379548929850755  0.29262695036800335  0.7047028251125977  1.0000
  O   O18       1.0  0.19885447409505747  0.5614246534069379  0.4517490876257425  1.0000
  O   O19       1.0  0.06488664467629224  0.7039071960595676  0.2934564800750292  1.0000
  O   O20       1.0  0.7881963212472486  0.45086730655749824  0.5621821228938799  1.0000
  O   O21       1.0  0.05980343205862235  0.2935249226922848  0.4476973666577564  1.0000
  O   O22       1.0  0.7879298969105338  0.5657627326872687  0.7016079165144758  1.0000
  O   O23       1.0  0.9445224663809599  0.7009118990110395  0.5665667769125305  1.0000
  O   O24       1.0  0.19912003521768898  0.44679187328966913  0.29441983972465374  1.0000
  O   O25       1.0  0.9458067465388567  0.4511716536786137  0.44845632048389206  1.0000
  O   O26       1.0  0.1546777326231563  0.44763569247744067  0.4521063605663824  1.0000
  O   O27       1.0  0.9478281050504195  0.6585872211774341  0.44951535624892325  1.0000
  O   O28       1.0  0.9440977653090031  0.4487110692690806  0.6594466154269226  1.0000
  O   O29       1.0  0.03649473840976493  0.53861421661734  0.5423090941481944  1.0000
  O   O30       1.0  0.8827243973528454  0.5414433958464072  0.5393748799075551  1.0000
  O   O31       1.0  0.03806862456988116  0.5404732422346185  0.38667305249224165  1.0000
  O   O32       1.0  0.034918044097928265  0.3858232529648689  0.5413877385109487  1.0000
  O   O33       1.0  0.17416294428355872  0.16032812505132904  0.9190684674133394  1.0000
  O   O34       1.0  0.2767757322032837  0.017670615095880738  0.9594621239447462  1.0000
  O   O35       1.0  0.2620248168982613  0.0829085021854183  0.8138375616556813  1.0000
  O   O36       1.0  0.7467890378917803  0.9180052954780817  0.16083892878487652  1.0000
  O   O37       1.0  0.7467177423005253  0.958297863451868  0.018085957932477272  1.0000
  O   O38       1.0  0.841856172470678  0.8127588519689932  0.08344807474403351  1.0000
