data_image0
_chemical_formula_structural       Zn8H48C84S6O38
_chemical_formula_sum              "Zn8 H48 C84 S6 O38"
_cell_length_a       24.689555034484968
_cell_length_b       25.09362702226236
_cell_length_c       25.159973046965145
_cell_angle_alpha    60.96458454628207
_cell_angle_beta     60.69998578291779
_cell_angle_gamma    60.42456594088052

_space_group_name_H-M_alt    "P 1"
_space_group_IT_number       1

loop_
  _space_group_symop_operation_xyz
  'x, y, z'

loop_
  _atom_site_type_symbol
  _atom_site_label
  _atom_site_symmetry_multiplicity
  _atom_site_fract_x
  _atom_site_fract_y
  _atom_site_fract_z
  _atom_site_occupancy
  Zn  Zn1       1.0  0.9620290808536395  0.11311011037373221  0.9386947836103162  1.0000
  Zn  Zn2       1.0  0.959492184052571  0.9865538561608176  0.9364345345120383  1.0000
  Zn  Zn3       1.0  0.9618146711675093  0.9864419861335924  0.06271483877846853  1.0000
  Zn  Zn4       1.0  0.08978243303120326  0.9859868583719593  0.936779544128022  1.0000
  Zn  Zn5       1.0  0.5229400913351013  0.4215370922672008  0.4992315761412983  1.0000
  Zn  Zn6       1.0  0.5248428253370959  0.5508840398241048  0.4974749704512505  1.0000
  Zn  Zn7       1.0  0.3954651769225136  0.5479688600879342  0.49967798362198584  1.0000
  Zn  Zn8       1.0  0.5190928133263454  0.5490545295914941  0.3727975318201048  1.0000
  H   H1        1.0  0.7971859657776862  0.0794270870883622  0.8776252348952767  1.0000
  H   H2        1.0  0.6876654127001628  0.14786906475370643  0.8596997922530679  1.0000
  H   H3        1.0  0.7179661512612225  0.3186750281306133  0.8247590001885641  1.0000
  H   H4        1.0  0.8264385345103662  0.24990619734529676  0.8441855549178497  1.0000
  H   H5        1.0  0.6257334748386894  0.23343993679400657  0.7516066488345957  1.0000
  H   H6        1.0  0.6095029334948237  0.29067872925018184  0.6439639093529979  1.0000
  H   H7        1.0  0.5932115414560926  0.46904604852753823  0.6446673858669031  1.0000
  H   H8        1.0  0.6083476902821019  0.41223502491904906  0.7532358025461151  1.0000
  H   H9        1.0  0.9071542096083148  0.075203637399845  0.1917751650215679  1.0000
  H   H10       1.0  0.8897031058891115  0.14019758349052583  0.2531082794400845  1.0000
  H   H11       1.0  0.8537891340437865  0.31434524621976584  0.09409461825229933  1.0000
  H   H12       1.0  0.8721577550602575  0.24908185916096678  0.032902129828009725  1.0000
  H   H13       1.0  0.7756858049881002  0.2276034146304724  0.336248833287968  1.0000
  H   H14       1.0  0.6655570726947955  0.288234588595671  0.3996033810433845  1.0000
  H   H15       1.0  0.6760491456515894  0.4662459215526411  0.2443953483667869  1.0000
  H   H16       1.0  0.787460406125504  0.40603075248688475  0.18105732932123444  1.0000
  H   H17       1.0  0.21510198910186773  0.0745997287112985  0.7680086967460512  1.0000
  H   H18       1.0  0.26965501480088244  0.14195694053778854  0.6590176808231547  1.0000
  H   H19       1.0  0.10977348976774684  0.3143951753722406  0.695216579758572  1.0000
  H   H20       1.0  0.055396659248813755  0.24671573896370802  0.8034937854827504  1.0000
  H   H21       1.0  0.3542254698238095  0.22824352954172158  0.6014674842585068  1.0000
  H   H22       1.0  0.42280889558227125  0.28686185861010943  0.5831820345924187  1.0000
  H   H23       1.0  0.26239231566221827  0.4666597159450988  0.558018456134981  1.0000
  H   H24       1.0  0.1933460653400942  0.4083321968935679  0.5757551851309091  1.0000
  H   H25       1.0  0.8025623935581622  0.9287157461784191  0.19103312153107063  1.0000
  H   H26       1.0  0.6931941301264428  0.9108991716929399  0.2524109443384998  1.0000
  H   H27       1.0  0.7108967727384224  0.8746977180662512  0.09281475528455738  1.0000
  H   H28       1.0  0.8196803950002758  0.8932093940632984  0.031661964889984226  1.0000
  H   H29       1.0  0.6374308154400267  0.7977092688265374  0.33468421920372277  1.0000
  H   H30       1.0  0.6209077806296505  0.6901556505198059  0.39861856098227133  1.0000
  H   H31       1.0  0.5795258972293309  0.7007025010371635  0.24579004811592164  1.0000
  H   H32       1.0  0.5947809154584005  0.8094069371814574  0.18167726555950026  1.0000
  H   H33       1.0  0.21521456089477917  0.8234652297449329  0.8825777342569554  1.0000
  H   H34       1.0  0.2745816186449871  0.7160424119213787  0.8633597131752354  1.0000
  H   H35       1.0  0.11130325087908932  0.7451137445452716  0.8201747341027926  1.0000
  H   H36       1.0  0.052176502281390834  0.8518767586128035  0.8401546017705996  1.0000
  H   H37       1.0  0.3613166546541962  0.6530168721016311  0.7532572106635981  1.0000
  H   H38       1.0  0.4276106751133778  0.635129228097995  0.6460043997728846  1.0000
  H   H39       1.0  0.2634900017980114  0.6156771199402727  0.6471418488490174  1.0000
  H   H40       1.0  0.1966748446361493  0.6334372339868963  0.7546894720073921  1.0000
  H   H41       1.0  0.21632139508896134  0.9354281132118275  0.03150407625550129  1.0000
  H   H42       1.0  0.2700787921371769  0.9197544857829243  0.10339374457372948  1.0000
  H   H43       1.0  0.10521715367536186  0.8753584523380766  0.269258146145205  1.0000
  H   H44       1.0  0.05185045966308612  0.8913086280716132  0.19710036068268977  1.0000
  H   H45       1.0  0.35134267424184146  0.8075425934713325  0.18706916116688174  1.0000
  H   H46       1.0  0.4184619906275841  0.6977512756254926  0.2420340479217487  1.0000
  H   H47       1.0  0.2588193148754384  0.6978355784060498  0.42134738919487097  1.0000
  H   H48       1.0  0.1909105197154658  0.8078451691791174  0.36644811035507274  1.0000
  C   C1        1.0  0.8779062493601868  0.11941881412170836  0.8819910305100083  1.0000
  C   C2        1.0  0.8177559200230603  0.1608435277305347  0.8620799731499461  1.0000
  C   C3        1.0  0.7798790805687756  0.13185713254553377  0.8649012711129701  1.0000
  C   C4        1.0  0.7194759515087696  0.16972733849066665  0.8544109392667282  1.0000
  C   C5        1.0  0.6979141514302469  0.23662882503935384  0.8404468738121977  1.0000
  C   C6        1.0  0.7364258695441348  0.2665273338257138  0.8348196662112032  1.0000
  C   C7        1.0  0.7964249722043419  0.22831197737177428  0.845909741140602  1.0000
  C   C8        1.0  0.618342468761277  0.32004609235985276  0.7574912334397723  1.0000
  C   C9        1.0  0.6201201520562307  0.2846099836053639  0.7272355628362562  1.0000
  C   C10       1.0  0.6107997722903703  0.3164800411676651  0.6675984051733651  1.0000
  C   C11       1.0  0.6000928016442869  0.3831632075366116  0.6384587471017299  1.0000
  C   C12       1.0  0.6015669973038198  0.4173268161904106  0.6680286419227388  1.0000
  C   C13       1.0  0.6104379237530323  0.3858910597331899  0.7279269471015937  1.0000
  C   C14       1.0  0.5808641552027749  0.41934464961388346  0.5790073179814925  1.0000
  C   C15       1.0  0.910441740657191  0.11859853999229134  0.06935137412677525  1.0000
  C   C16       1.0  0.8910149680598491  0.15843307881174698  0.1088156040488004  1.0000
  C   C17       1.0  0.8942787850728138  0.127625383916957  0.17143475783849735  1.0000
  C   C18       1.0  0.8840819825777545  0.1635590557741295  0.20572303731654543  1.0000
  C   C19       1.0  0.8702027480095604  0.23041554073792989  0.17694086397769154  1.0000
  C   C20       1.0  0.8639547558432737  0.2622485332051738  0.11563256594497062  1.0000
  C   C21       1.0  0.874511397786101  0.22594575330016653  0.08157828749556016  1.0000
  C   C22       1.0  0.7866873355282494  0.3139544569006959  0.2551628220092112  1.0000
  C   C23       1.0  0.7529552828091965  0.27956190241768303  0.31592431518606645  1.0000
  C   C24       1.0  0.6919237049602955  0.31325599394109827  0.3512083588645324  1.0000
  C   C25       1.0  0.6649030613271593  0.38062554415589034  0.32554486314105446  1.0000
  C   C26       1.0  0.6979200433283237  0.41394720665133644  0.26339469213903755  1.0000
  C   C27       1.0  0.759323069205045  0.380685132110493  0.22802829640947678  1.0000
  C   C28       1.0  0.6039499657528323  0.41813456279044925  0.3663286310083507  1.0000
  C   C29       1.0  0.09533281183013287  0.11612706349423972  0.8518542074056371  1.0000
  C   C30       1.0  0.1320973367552867  0.15689473939261941  0.7915311077904689  1.0000
  C   C31       1.0  0.1932260454250638  0.12712706586172123  0.752005554444878  1.0000
  C   C32       1.0  0.2237734900098686  0.16434140439293538  0.6918286313153886  1.0000
  C   C33       1.0  0.19274588249196248  0.23136864433173812  0.6720432509278141  1.0000
  C   C34       1.0  0.13315553559279172  0.2620842349585147  0.7121019374096135  1.0000
  C   C35       1.0  0.10286423756943457  0.22450538807809292  0.7720360486365934  1.0000
  C   C36       1.0  0.270097874900479  0.31550816615415306  0.5899943095900042  1.0000
  C   C37       1.0  0.3340209247073175  0.28016853998921937  0.5932643762980592  1.0000
  C   C38       1.0  0.37222892220246  0.31278538762539654  0.5827705139776995  1.0000
  C   C39       1.0  0.3464649641912986  0.3801328719628216  0.5692174485041122  1.0000
  C   C40       1.0  0.2814386469828491  0.41442229501548417  0.568583982319318  1.0000
  C   C41       1.0  0.2429685974855502  0.382222326519461  0.5788455005987031  1.0000
  C   C42       1.0  0.3890118867522644  0.4170282899818574  0.5504959082904223  1.0000
  C   C43       1.0  0.8770637731858385  0.9320255879874754  0.06875791127589538  1.0000
  C   C44       1.0  0.8169833301790911  0.9123295731523489  0.10786020047429898  1.0000
  C   C45       1.0  0.7825732866324132  0.9156679510530594  0.17060544602404787  1.0000
  C   C46       1.0  0.7222790651349767  0.9052655411678714  0.2049249687248462  1.0000
  C   C47       1.0  0.6971041243592351  0.8911175509558903  0.17602947419980114  1.0000
  C   C48       1.0  0.7320890458305555  0.8849773803749129  0.11450765523014912  1.0000
  C   C49       1.0  0.7922578065098591  0.8956648782093455  0.08042657468720193  1.0000
  C   C50       1.0  0.6173612570618728  0.80865450845522  0.25465409988912313  1.0000
  C   C51       1.0  0.6262052754398295  0.7755568908290446  0.31492590684771915  1.0000
  C   C52       1.0  0.6166991798639075  0.7159322549110811  0.3506117174460643  1.0000
  C   C53       1.0  0.598805820211048  0.6896805736615903  0.3258934918414056  1.0000
  C   C54       1.0  0.59336237161439  0.7219703454382798  0.26410424594044457  1.0000
  C   C55       1.0  0.6022989821973823  0.7818751944157472  0.2282840138437053  1.0000
  C   C56       1.0  0.5792403844250771  0.6304884335203412  0.36703566378427865  1.0000
  C   C57       1.0  0.09166151548262741  0.9020194658956984  0.8839850371672996  1.0000
  C   C58       1.0  0.13022082038152386  0.8432721444349057  0.8630346083874515  1.0000
  C   C59       1.0  0.1936141129366362  0.8062885555421956  0.867776785795506  1.0000
  C   C60       1.0  0.22681195106139987  0.7470635360863369  0.8566366471670861  1.0000
  C   C61       1.0  0.19618390697885243  0.7255822388274923  0.8403195162349562  1.0000
  C   C62       1.0  0.13432300152558693  0.7633229029683904  0.8323409748084954  1.0000
  C   C63       1.0  0.10134218119007686  0.8223920571816524  0.8438149120270494  1.0000
  C   C64       1.0  0.2753873750171109  0.6447522302052849  0.7589226951249728  1.0000
  C   C65       1.0  0.33975691560567606  0.6464259585548221  0.7289604804912386  1.0000
  C   C66       1.0  0.37670941217955073  0.6360515892788073  0.6696134925661141  1.0000
  C   C67       1.0  0.34931636567896607  0.6239775268493447  0.6408327043195926  1.0000
  C   C68       1.0  0.28379057775018157  0.625200490202552  0.6702714850237755  1.0000
  C   C69       1.0  0.24654703355015778  0.6354683383405659  0.7295783379996267  1.0000
  C   C70       1.0  0.3907278284473531  0.604182396183248  0.581649970187911  1.0000
  C   C71       1.0  0.09532409952886665  0.9322132535060208  0.06730749286538172  1.0000
  C   C72       1.0  0.13114706356628852  0.9143531692427447  0.11036707090257633  1.0000
  C   C73       1.0  0.19322671139873634  0.9210385872401263  0.0836064613814145  1.0000
  C   C74       1.0  0.22325710707915644  0.911970387911019  0.12332032837961289  1.0000
  C   C75       1.0  0.19071810878958922  0.8959818323163304  0.1897500401976019  1.0000
  C   C76       1.0  0.12983565974420233  0.8869001566994044  0.21738102076747617  1.0000
  C   C77       1.0  0.10014487699130808  0.8960989995922195  0.17734607639297909  1.0000
  C   C78       1.0  0.26756630868567294  0.8128316696696347  0.2742080055400253  1.0000
  C   C79       1.0  0.3308993225309749  0.7825536796088742  0.2379555305924796  1.0000
  C   C80       1.0  0.36829858706683877  0.7217632303808302  0.26854577939038665  1.0000
  C   C81       1.0  0.34247239472455954  0.6918987728501094  0.3348842991133126  1.0000
  C   C82       1.0  0.27791170954100847  0.7218077547591478  0.3699099205868349  1.0000
  C   C83       1.0  0.24011438202880703  0.7824932417706519  0.339642828089346  1.0000
  C   C84       1.0  0.38503531710966127  0.6312487518308104  0.37027516293262147  1.0000
  S   S1        1.0  0.6151808038904532  0.28337922654450415  0.8397321721946513  1.0000
  S   S2        1.0  0.8707081770126378  0.274113060316573  0.2154676021475552  1.0000
  S   S3        1.0  0.22516451344475988  0.27715017423906835  0.5902867184451638  1.0000
  S   S4        1.0  0.6140566986187677  0.8911901784988745  0.21481646175897146  1.0000
  S   S5        1.0  0.23226329808103674  0.6436981478495485  0.8406557532287025  1.0000
  S   S6        1.0  0.22386594839383625  0.8956578436901738  0.2391298312914643  1.0000
  O   O1        1.0  0.9928038155777441  0.018195867107408503  0.9682938125185816  1.0000
  O   O2        1.0  0.8983612753612389  0.058980250693608106  0.890829205143888  1.0000
  O   O3        1.0  0.9027689990173471  0.14793151283167563  0.8901592665296432  1.0000
  O   O4        1.0  0.5928606257083969  0.33538128476376283  0.8637129141581924  1.0000
  O   O5        1.0  0.5803678975257114  0.23801576964322632  0.8699638553460219  1.0000
  O   O6        1.0  0.5778790982972591  0.47841839051690027  0.5516022596216889  1.0000
  O   O7        1.0  0.5670769155987755  0.38858823912627133  0.5616479814306035  1.0000
  O   O8        1.0  0.9224286997499149  0.05779442480213962  0.09764597662083936  1.0000
  O   O9        1.0  0.9151526100188859  0.1484995380605696  0.010036412701332409  1.0000
  O   O10       1.0  0.8978399028925851  0.3243312875356353  0.1648134333747818  1.0000
  O   O11       1.0  0.8996998298178482  0.2264455536065171  0.26542149674523324  1.0000
  O   O12       1.0  0.5772133430683437  0.4776683216764469  0.3377224721149049  1.0000
  O   O13       1.0  0.5848086151303206  0.3881058189866808  0.4265294821165784  1.0000
  O   O14       1.0  0.12507035400845717  0.0550321131846516  0.8679033177883754  1.0000
  O   O15       1.0  0.0363816160958024  0.14562190570543984  0.8814412962441197  1.0000
  O   O16       1.0  0.16922027401891876  0.32812835085812253  0.5705795461206549  1.0000
  O   O17       1.0  0.2727490266352602  0.23108591186964852  0.5559217339882707  1.0000
  O   O18       1.0  0.3600284204137338  0.477254155977313  0.5439122417473783  1.0000
  O   O19       1.0  0.4506209000518949  0.3862296944894439  0.5410250438862577  1.0000
  O   O20       1.0  0.8970658986506306  0.9449122719512317  0.09803298290049149  1.0000
  O   O21       1.0  0.9023601509909225  0.9361586169051037  0.009497236968535229  1.0000
  O   O22       1.0  0.5866902748415156  0.9171799060477284  0.1642951248214858  1.0000
  O   O23       1.0  0.583938217605535  0.9201807044334771  0.2647545749472473  1.0000
  O   O24       1.0  0.5699630084251834  0.6060159294240466  0.3393745571912703  1.0000
  O   O25       1.0  0.5713851886078131  0.6105024827374663  0.42694902353659364  1.0000
  O   O26       1.0  0.12163268347051573  0.9182743690637167  0.9000310179915942  1.0000
  O   O27       1.0  0.03149583582160166  0.9300164080252603  0.8858786348803136  1.0000
  O   O28       1.0  0.17812239917601858  0.6212079814409464  0.8642681470823421  1.0000
  O   O29       1.0  0.2815754639052486  0.6109188283730873  0.8719269499406793  1.0000
  O   O30       1.0  0.3610228457585762  0.5946776975487181  0.5590436619620008  1.0000
  O   O31       1.0  0.4519787167114088  0.5966086025734612  0.5595603256761593  1.0000
  O   O32       1.0  0.12495104008232259  0.9509429253455934  0.0066887588963880674  1.0000
  O   O33       1.0  0.03721032237186953  0.9290982459836742  0.0943792035330162  1.0000
  O   O34       1.0  0.1684583178952082  0.9177563193347638  0.2912485959625144  1.0000
  O   O35       1.0  0.2725433891732222  0.9277276873466963  0.19645893213706234  1.0000
  O   O36       1.0  0.3575244260657513  0.6079693937564487  0.43057002206587913  1.0000
  O   O37       1.0  0.44562742823943313  0.6085818290980997  0.33833298594736055  1.0000
  O   O38       1.0  0.4920287132764046  0.516872858814267  0.4672560268321322  1.0000
