data_image0
_chemical_formula_structural       Al6H74C99O31
_chemical_formula_sum              "Al6 H74 C99 O31"
_cell_length_a       12.856283848192454
_cell_length_b       12.444888955022597
_cell_length_c       27.768002859838692
_cell_angle_alpha    90.46306772214918
_cell_angle_beta     89.51973981913908
_cell_angle_gamma    62.180703253993634

_space_group_name_H-M_alt    "P 1"
_space_group_IT_number       1

loop_
  _space_group_symop_operation_xyz
  'x, y, z'

loop_
  _atom_site_type_symbol
  _atom_site_label
  _atom_site_symmetry_multiplicity
  _atom_site_fract_x
  _atom_site_fract_y
  _atom_site_fract_z
  _atom_site_occupancy
  Al  Al1       1.0  0.416614634706562  0.18291718844977115  0.4928757790578615  1.0000
  Al  Al2       1.0  0.41850956969270203  0.9245969141124845  0.49673911582026886  1.0000
  Al  Al3       1.0  0.6513159001230662  0.9253978833093156  0.49527427550548  1.0000
  Al  Al4       1.0  0.9255984464635673  0.16472093842096316  0.9814173650001764  1.0000
  Al  Al5       1.0  0.6791751260245888  0.4106347183530443  0.9817455362318769  1.0000
  Al  Al6       1.0  0.901107010308088  0.43300235074322313  0.9815718970590553  1.0000
  H   H1        1.0  0.5281838301687499  0.12287992402085728  0.1987768407542561  1.0000
  H   H2        1.0  0.5295697519288112  0.5923046699307764  0.8585132156242353  1.0000
  H   H3        1.0  0.45490316333986397  0.8355688987385788  0.7205869918166101  1.0000
  H   H4        1.0  0.43093651190206117  0.8691495174904135  0.6330699546611953  1.0000
  H   H5        1.0  0.7796813843789607  0.9466933973506855  0.6216844964943177  1.0000
  H   H6        1.0  0.49051440497125737  0.26347240705990055  0.7820563291191718  1.0000
  H   H7        1.0  0.522261610566808  0.29814776258367465  0.8682747473788551  1.0000
  H   H8        1.0  0.8028100832509324  0.9765333614964151  0.7091601469811765  1.0000
  H   H9        1.0  0.8643418620991808  0.0964916042092838  0.7557288483661253  1.0000
  H   H10       1.0  0.8954725269346965  0.12388421012801826  0.8425632412676337  1.0000
  H   H11       1.0  0.5103774758552362  0.3372491259018702  0.7035607632185119  1.0000
  H   H12       1.0  0.6426626683136901  0.369314774021511  0.21858589344731882  1.0000
  H   H13       1.0  0.486465021143438  0.3048513878778323  0.6160173626787612  1.0000
  H   H14       1.0  0.2765395711219298  0.28424193326144115  0.6199974455341176  1.0000
  H   H15       1.0  0.20394524686142998  0.00966016002667661  0.7815724536440598  1.0000
  H   H16       1.0  0.14561048498775617  0.050745432158066726  0.8683109492704658  1.0000
  H   H17       1.0  0.2207968729704106  0.3224312883945686  0.7068472189997409  1.0000
  H   H18       1.0  0.0735806727100083  0.39392458596958596  0.7599109769233722  1.0000
  H   H19       1.0  0.7051277691394657  0.832015539031005  0.20237230575764195  1.0000
  H   H20       1.0  0.024141387908066695  0.4319198998485732  0.8471623646143414  1.0000
  H   H21       1.0  0.13783836895765228  0.024186714629756512  0.705288686060733  1.0000
  H   H22       1.0  0.1999255993102551  0.9832702647286741  0.619194885936281  1.0000
  H   H23       1.0  0.3371632437158283  0.17636766837471654  0.25641422092064664  1.0000
  H   H24       1.0  0.8281126720895458  0.4751038931310984  0.21584677621606832  1.0000
  H   H25       1.0  0.873541960539569  0.01831393563156768  0.20535530050960196  1.0000
  H   H26       1.0  0.8267290971922276  0.20255603500982053  0.2767599609896294  1.0000
  H   H27       1.0  0.7169127347905259  0.9549075005237665  0.255604108807404  1.0000
  H   H28       1.0  0.3875980170351383  0.70851663796212  0.23203546496286986  1.0000
  H   H29       1.0  0.410347707017678  0.7719842157010034  0.17818552433275414  1.0000
  H   H30       1.0  0.4668611236291157  0.6124265539485095  0.18246237831277062  1.0000
  H   H31       1.0  0.4892310242266547  0.46536992195053967  0.28340379005499733  1.0000
  H   H32       1.0  0.5063658112675  0.37021486416045934  0.3339514370700769  1.0000
  H   H33       1.0  0.27254072482779185  0.5273012598039485  0.2841972690953796  1.0000
  H   H34       1.0  0.29689205602051055  0.029965321396367976  0.185891928261313  1.0000
  H   H35       1.0  0.29159167698173144  0.44261442023309894  0.3374410611732301  1.0000
  H   H36       1.0  0.36792371501140764  0.5740245579190602  0.3797960266489397  1.0000
  H   H37       1.0  0.22364855965209066  0.6628736640496131  0.3582252753411553  1.0000
  H   H38       1.0  0.3456588010444079  0.6591920695614277  0.32646653251556756  1.0000
  H   H39       1.0  0.1474919784869186  0.4546752194586361  0.25420290061479284  1.0000
  H   H40       1.0  0.20238604800577778  0.40073585898792163  0.1951349332169983  1.0000
  H   H41       1.0  0.04836201655778888  0.4740327713504228  0.20633029208806872  1.0000
  H   H42       1.0  0.8985877929870013  0.418405850372281  0.2896445382612285  1.0000
  H   H43       1.0  0.9465196870040984  0.2956870018483003  0.33043252938995943  1.0000
  H   H44       1.0  0.014904742344668893  0.3903088827840549  0.33027386301706224  1.0000
  H   H45       1.0  0.9594582413462335  0.18534288369701798  0.22458723446706594  1.0000
  H   H46       1.0  0.14487578479440802  0.9075570959716687  0.22614196428098413  1.0000
  H   H47       1.0  0.24867801641980952  0.8818791417532807  0.27250649453872466  1.0000
  H   H48       1.0  0.09622696540240129  0.956925353207211  0.28651465968876266  1.0000
  H   H49       1.0  0.9699213970226523  0.7344094966511179  0.7714447366139936  1.0000
  H   H50       1.0  0.9651351804847437  0.6426202109595422  0.8191999242834029  1.0000
  H   H51       1.0  0.8129971206264271  0.9195231339487788  0.811409790383962  1.0000
  H   H52       1.0  0.8033799352460703  0.8327335657694379  0.8594225510480558  1.0000
  H   H53       1.0  0.0178841331834008  0.7660620461934186  0.879329595280872  1.0000
  H   H54       1.0  0.9308390859160625  0.925408977159016  0.8840885502888652  1.0000
  H   H55       1.0  0.023158379053569395  0.8604185366979422  0.8327344932200232  1.0000
  H   H56       1.0  0.8036164321615684  0.6486438833700916  0.611223068813686  1.0000
  H   H57       1.0  0.3064084193808796  0.7311030905654192  0.7654896322996622  1.0000
  H   H58       1.0  0.3661817637032242  0.7167901956167099  0.8242232877383985  1.0000
  H   H59       1.0  0.4014327932339654  0.5046213089117019  0.7573090197979865  1.0000
  H   H60       1.0  0.45273246117623234  0.48945358435401687  0.8166815589279396  1.0000
  H   H61       1.0  0.24111467021366909  0.6064033506831095  0.8477106602704083  1.0000
  H   H62       1.0  0.26450566794128594  0.47373904473982253  0.8149583780262047  1.0000
  H   H63       1.0  0.1912523852784176  0.6183261565908111  0.7876388429032205  1.0000
  H   H64       1.0  0.4463518390603198  0.9654739724793585  0.23399265856564713  1.0000
  H   H65       1.0  0.41551390087969514  0.9064164712363123  0.28745459265199  1.0000
  H   H66       1.0  0.523347042789318  0.9568612286339049  0.28778847157676785  1.0000
  H   H67       1.0  0.6312062351321187  0.5167095185325365  0.27511977748026345  1.0000
  H   H68       1.0  0.943356447853354  0.6538308788862535  0.24665922703136542  1.0000
  H   H69       1.0  0.8564888067283293  0.7515315147619288  0.29448285882671854  1.0000
  H   H70       1.0  0.9236723930643507  0.5920556892807838  0.30158413722612926  1.0000
  H   H71       1.0  0.8380328647370234  0.6397367920295524  0.8645322967870612  1.0000
  H   H72       1.0  0.8261818108229448  0.6032283324521469  0.6983323211370517  1.0000
  H   H73       1.0  0.31618092157003724  0.37814112993957144  0.4605521454678368  1.0000
  H   H74       1.0  0.020388421535038496  0.9650053252185842  0.009857852357164602  1.0000
  C   C1        1.0  0.2912595151099069  0.08697883107396365  0.4256644985807512  1.0000
  C   C2        1.0  0.6467895810558985  0.7055808555039818  0.3386724294676072  1.0000
  C   C3        1.0  0.7615395868218541  0.1845007582759238  0.25845350011252327  1.0000
  C   C4        1.0  0.6036254763778217  0.7787705688948208  0.4295569462445171  1.0000
  C   C5        1.0  0.787122356647089  0.08195413993586699  0.22008845676599986  1.0000
  C   C6        1.0  0.6880663270583156  0.20957355383345105  0.09556192761753121  1.0000
  C   C7        1.0  0.662771582276747  0.11333261720222515  0.37893285185780456  1.0000
  C   C8        1.0  0.6580346398401531  0.2778784408571441  0.22778503390807003  1.0000
  C   C9        1.0  0.6824438177122331  0.17541636042103906  0.18861119853740857  1.0000
  C   C10       1.0  0.5695628107887813  0.24215718850239665  0.2541595441915304  1.0000
  C   C11       1.0  0.6758994055615375  0.14770416561724195  0.28647514476787717  1.0000
  C   C12       1.0  0.6286958713764932  0.7272401657345712  0.38178779359721915  1.0000
  C   C13       1.0  0.5952283627296495  0.139485459697525  0.21637188521056322  1.0000
  C   C14       1.0  0.6999927625228962  0.04690147308845377  0.24676509847730438  1.0000
  C   C15       1.0  0.6846070237318713  0.19219521772533443  0.13850545688278262  1.0000
  C   C16       1.0  0.6279819089182723  0.09384640300812924  0.42596130904682644  1.0000
  C   C17       1.0  0.6723264383580982  0.1295719633360476  0.3362687622948997  1.0000
  C   C18       1.0  0.0645805388733365  0.2633016819161895  0.27079592069680564  1.0000
  C   C19       1.0  0.14041092086522158  0.29182848931773014  0.23271621537767123  1.0000
  C   C20       1.0  0.0674598182839787  0.2559812991365931  0.1020526187842705  1.0000
  C   C21       1.0  0.24097973234037803  0.10420205450677138  0.37847186337312894  1.0000
  C   C22       1.0  0.04378910289498349  0.18270735642126817  0.2324600273414461  1.0000
  C   C23       1.0  0.7573956621149946  0.5639412944582248  0.22701495982818193  1.0000
  C   C24       1.0  0.1179397766118271  0.21117770640466918  0.193790944983391  1.0000
  C   C25       1.0  0.15679416088432419  0.06719266817213308  0.2487239243670487  1.0000
  C   C26       1.0  0.18045968253974107  0.14733961180478866  0.2875771172602768  1.0000
  C   C27       1.0  0.23206029121028135  0.09585436195422399  0.211027099403438  1.0000
  C   C28       1.0  0.2882328780397216  0.10453533518148105  0.5640690165728941  1.0000
  C   C29       1.0  0.2536808992965263  0.176804924616178  0.2487701636698532  1.0000
  C   C30       1.0  0.0892066582436115  0.23832416524923158  0.14482671383888152  1.0000
  C   C31       1.0  0.21267233355081316  0.1207456409769492  0.3362503392617313  1.0000
  C   C32       1.0  0.6152626584647222  0.7595336841131227  0.6162997743997493  1.0000
  C   C33       1.0  0.7270669822700669  0.6873016321049831  0.6352841683728343  1.0000
  C   C34       1.0  0.6744936541128226  0.6613832002906649  0.18963558178635512  1.0000
  C   C35       1.0  0.7395447802198731  0.663151817572043  0.6843429365445316  1.0000
  C   C36       1.0  0.6420673887506253  0.714488258463  0.7162814125848983  1.0000
  C   C37       1.0  0.5313306444798371  0.791372109134187  0.6968406697054307  1.0000
  C   C38       1.0  0.5174978502890895  0.8110682099332678  0.647632609796503  1.0000
  C   C39       1.0  0.7496126733104022  0.6813359996312442  0.7955255644429757  1.0000
  C   C40       1.0  0.5972750005015328  0.7930898832330089  0.5648538624756085  1.0000
  C   C41       1.0  0.7648712181190475  0.6450984611388717  0.8435958845736168  1.0000
  C   C42       1.0  0.5886324017480007  0.6199977367696972  0.8406729366668558  1.0000
  C   C43       1.0  0.5737011868045484  0.6562136471482274  0.7926007086818531  1.0000
  C   C44       1.0  0.6551452049660398  0.6848437212412932  0.768259189061375  1.0000
  C   C45       1.0  0.7716993434179569  0.6660483866433681  0.2557616299583075  1.0000
  C   C46       1.0  0.6852856442511523  0.6133185639127275  0.8657771188812549  1.0000
  C   C47       1.0  0.6328466110976619  0.12497659847935694  0.6140089106648432  1.0000
  C   C48       1.0  0.7225627414763451  0.03232852881335886  0.6399456193969968  1.0000
  C   C49       1.0  0.735256922013299  0.04961007284433088  0.6885213883148824  1.0000
  C   C50       1.0  0.6587935327873069  0.15929050365269876  0.7119922728905835  1.0000
  C   C51       1.0  0.5685287053230823  0.2511727850267889  0.685708541217963  1.0000
  C   C52       1.0  0.6132631830485521  0.10352104197702523  0.5631902258356832  1.0000
  C   C53       1.0  0.5555265326869048  0.23447462229302113  0.6370708848075708  1.0000
  C   C54       1.0  0.5791768402661717  0.23467128236384824  0.7951814163452229  1.0000
  C   C55       1.0  0.596413503128339  0.25307082979869466  0.8432805816586751  1.0000
  C   C56       1.0  0.6609894651618688  0.6874620775280533  0.2882717775423274  1.0000
  C   C57       1.0  0.8073308211192298  0.15402688455377234  0.8287242712439209  1.0000
  C   C58       1.0  0.789562927510879  0.13794393350459433  0.7806329457119218  1.0000
  C   C59       1.0  0.6753291797260701  0.17748711235130069  0.7631697558353637  1.0000
  C   C60       1.0  0.7107586392103116  0.21189317919969844  0.8602886717354821  1.0000
  C   C61       1.0  0.24179778973675065  0.13160323241122285  0.614428010557596  1.0000
  C   C62       1.0  0.2455336997584466  0.2284121229506512  0.6392424757365163  1.0000
  C   C63       1.0  0.21334435783067818  0.24963632567031613  0.6875995518089155  1.0000
  C   C64       1.0  0.6474656874621588  0.5868262343080345  0.25836876722648583  1.0000
  C   C65       1.0  0.1753206303544701  0.1760547260716264  0.7125996737119777  1.0000
  C   C66       1.0  0.16994874309919794  0.08050316099794941  0.6870607865649916  1.0000
  C   C67       1.0  0.6884340593058695  0.7622844914882092  0.2192377263823531  1.0000
  C   C68       1.0  0.2032770662586927  0.057994749392257516  0.638697179270551  1.0000
  C   C69       1.0  0.1628816731542244  0.10279293980993032  0.7955382096994725  1.0000
  C   C70       1.0  0.13249812799091387  0.12454837377455164  0.8441277501142822  1.0000
  C   C71       1.0  0.06481417255353247  0.33966643085368275  0.8324249129212833  1.0000
  C   C72       1.0  0.09331918388570407  0.31766251240463816  0.7836940253958248  1.0000
  C   C73       1.0  0.14342158939784608  0.1988301054759631  0.7642656542615216  1.0000
  C   C74       1.0  0.08367832670564469  0.24336951236440998  0.8630260362330873  1.0000
  C   C75       1.0  0.7114498073287834  0.23689778241848106  0.0478188030385951  1.0000
  C   C76       1.0  0.5634900032527952  0.6846293511862169  0.2223053709491367  1.0000
  C   C77       1.0  0.7202830693087705  0.5672766091543836  0.0484242178406475  1.0000
  C   C78       1.0  0.5785385036551175  0.7866683051396631  0.25087475645047874  1.0000
  C   C79       1.0  0.027343523555295204  0.26705587079539583  0.053249049965110394  1.0000
  C   C80       1.0  0.7341792567985194  0.23202968159817058  0.9107753694273131  1.0000
  C   C81       1.0  0.7102151390835159  0.5621757785886529  0.9149328604367285  1.0000
  C   C82       1.0  0.0416645803702451  0.2672499585033776  0.9139122225946609  1.0000
  C   C83       1.0  0.6931649656472344  0.619316906203764  0.09605112679682291  1.0000
  C   C84       1.0  0.45115549262703064  0.6949275589829682  0.2028682741018386  1.0000
  C   C85       1.0  0.45207121758367913  0.41284937825928836  0.30222505162591773  1.0000
  C   C86       1.0  0.32542575059819256  0.49544175291862985  0.31699285098851954  1.0000
  C   C87       1.0  0.3151353869783549  0.6036615725794335  0.34699770666497903  1.0000
  C   C88       1.0  0.13393430746550183  0.41200829122624316  0.22170717515962932  1.0000
  C   C89       1.0  0.6841745416439123  0.6419050294423341  0.13921432334183953  1.0000
  C   C90       1.0  0.9762664192205646  0.3469500368493357  0.3068742799225602  1.0000
  C   C91       1.0  0.16211610598275428  0.9469152646512242  0.25885007489652884  1.0000
  C   C92       1.0  0.91241321569251  0.7272185546734418  0.7993894040466857  1.0000
  C   C93       1.0  0.8646200550572161  0.8380379973093922  0.8328273054814231  1.0000
  C   C94       1.0  0.9642330749404733  0.8482975902602025  0.8586354114818774  1.0000
  C   C95       1.0  0.3790326738350132  0.671181131027673  0.7888440824321351  1.0000
  C   C96       1.0  0.38076014580016704  0.5486575362893406  0.7931406370242443  1.0000
  C   C97       1.0  0.2631288631957389  0.5623549168514329  0.8119286417002415  1.0000
  C   C98       1.0  0.4856943926537767  0.9099637535027371  0.2657782508406825  1.0000
  C   C99       1.0  0.8800017581191356  0.6650159620940171  0.27552870310331207  1.0000
  O   O1        1.0  0.5262685302628113  0.1702936254633585  0.44018098487745766  1.0000
  O   O2        1.0  0.8188136801203496  0.5500533605798309  0.029959833332377197  1.0000
  O   O3        1.0  0.015634574729290297  0.35973493878930907  0.0288626355955515  1.0000
  O   O4        1.0  0.3174543782467936  0.16725585010241423  0.44080937366744183  1.0000
  O   O5        1.0  0.0337661680992838  0.18346292732656622  0.9362656539944043  1.0000
  O   O6        1.0  0.8365927790666133  0.16506325528019525  0.9259019576384946  1.0000
  O   O7        1.0  0.6505704315124773  0.31841909620795417  0.935216507279783  1.0000
  O   O8        1.0  0.6388155124504776  0.52783977884134  0.9336113317997744  1.0000
  O   O9        1.0  0.8042413591223294  0.5491827162572632  0.9352708881514077  1.0000
  O   O10       1.0  0.010433774886124092  0.3750007830628661  0.9315157936545758  1.0000
  O   O11       1.0  0.8338677376954562  0.33821213680882095  0.9822746199421317  1.0000
  O   O12       1.0  0.49795927690070135  0.8157426371923863  0.5465461831699088  1.0000
  O   O13       1.0  0.3087856699780076  0.9892862409190288  0.44793351540196374  1.0000
  O   O14       1.0  0.50614857337505  0.7996400206407656  0.449805907200748  1.0000
  O   O15       1.0  0.6801816847876694  0.8060944730445952  0.44713662364634393  1.0000
  O   O16       1.0  0.7008270722560184  0.998195547941222  0.44832749634538516  1.0000
  O   O17       1.0  0.5216953095790301  0.18148664072392512  0.5429807981799045  1.0000
  O   O18       1.0  0.3156846638872253  0.17925649807639846  0.544612935500993  1.0000
  O   O19       1.0  0.30251474195827643  0.004046501196249628  0.5442519463085987  1.0000
  O   O20       1.0  0.457212953317068  0.31884723523540964  0.2696663152719482  1.0000
  O   O21       1.0  0.8228926607316537  0.7158691646467402  0.772154919150502  1.0000
  O   O22       1.0  0.48306960941929594  0.662134729099563  0.7654952448138631  1.0000
  O   O23       1.0  0.6784901099401992  0.8051391034208847  0.5421849277758781  1.0000
  O   O24       1.0  0.6899735093039965  0.0025624962605803572  0.5435353263088417  1.0000
  O   O25       1.0  0.49651086098768366  0.008998417663583797  0.4942222134799081  1.0000
  O   O26       1.0  0.0035735761776222994  0.18440992797012262  0.038720044792697195  1.0000
  O   O27       1.0  0.8065212688914796  0.16216919143961675  0.0276765285077758  1.0000
  O   O28       1.0  0.6348115433361627  0.33962205648523996  0.030668000069432808  1.0000
  O   O29       1.0  0.6483666278348038  0.5362394975468304  0.0290533322094859  1.0000
  O   O30       1.0  0.34283912625899393  0.34252792633077417  0.4917513442778231  1.0000
  O   O31       1.0  0.009068264274105795  0.005492345059131797  0.9793277511303344  1.0000
