data_image0
_chemical_formula_structural       Cd2H56C64N8O8
_chemical_formula_sum              "Cd2 H56 C64 N8 O8"
_cell_length_a       10.29214435477001
_cell_length_b       12.47703625394781
_cell_length_c       12.5531
_cell_angle_alpha    118.34888132678962
_cell_angle_beta     95.26700136118049
_cell_angle_gamma    94.36377011595938

_space_group_name_H-M_alt    "P 1"
_space_group_IT_number       1

loop_
  _space_group_symop_operation_xyz
  'x, y, z'

loop_
  _atom_site_type_symbol
  _atom_site_label
  _atom_site_symmetry_multiplicity
  _atom_site_fract_x
  _atom_site_fract_y
  _atom_site_fract_z
  _atom_site_occupancy
  Cd  Cd1       1.0  0.23669164384561012  0.6711268535540924  0.7953471590513813  1.0000
  Cd  Cd2       1.0  0.7633096710485532  0.3288736698961685  0.20465358526863744  1.0000
  H   H1        1.0  0.5515859185705523  0.9526132899833967  0.6116888792146894  1.0000
  H   H2        1.0  0.44841331034549375  0.0473863141653865  0.38830968100022295  1.0000
  H   H3        1.0  0.26252939625845073  0.9725391495949012  0.002288416080766263  1.0000
  H   H4        1.0  0.7374708083922246  0.0274604545538821  0.997711810803196  1.0000
  H   H5        1.0  0.0065945500155138  0.6841818538928663  0.5894722969897754  1.0000
  H   H6        1.0  0.9934048134093842  0.3158186695573946  0.41052909707200763  1.0000
  H   H7        1.0  0.8387314174737314  0.7611990934099565  0.49704086713344947  1.0000
  H   H8        1.0  0.1612678114423076  0.2388005107388267  0.5029592863134126  1.0000
  H   H9        1.0  0.7943271569706027  0.9769334106764731  0.6070203828642491  1.0000
  H   H10       1.0  0.2056722064542953  0.0230671127737949  0.3929794179655843  1.0000
  H   H11       1.0  0.9158307695027545  0.1251867985447106  0.8129192622484139  1.0000
  H   H12       1.0  0.0841674836786552  0.8748128056040726  0.18708002114536257  1.0000
  H   H13       1.0  0.1511718737804557  0.22578320176079097  0.9713248137626778  1.0000
  H   H14       1.0  0.8488274896444424  0.7742173216894771  0.02867578368312694  1.0000
  H   H15       1.0  0.030802407764134912  0.1926672044927216  0.047259656851757384  1.0000
  H   H16       1.0  0.9691979313953993  0.8073333189575392  0.9527418106471329  1.0000
  H   H17       1.0  0.3282099582577657  0.18773055553706544  0.0938106905353706  1.0000
  H   H18       1.0  0.6717903809017685  0.8122699679131954  0.9061891837315696  1.0000
  H   H19       1.0  0.2098411038581389  0.1502690201659505  0.1692743067275799  1.0000
  H   H20       1.0  0.7901603455448908  0.8497324225857952  0.830726084975417  1.0000
  H   H21       1.0  0.2522112707600854  0.4002362860005562  0.17674922776215135  1.0000
  H   H22       1.0  0.747789202908308  0.5997651567511895  0.82325029388776  1.0000
  H   H23       1.0  0.146746519340077  0.358100102596012  0.2581393720833631  1.0000
  H   H24       1.0  0.8532538198194572  0.6419004208542489  0.7418597055675988  1.0000
  H   H25       1.0  0.4481053852836538  0.3799620111275601  0.28791634341437333  1.0000
  H   H26       1.0  0.5518949538758733  0.6200385123227079  0.7120843274685454  1.0000
  H   H27       1.0  0.3515661720632011  0.3071266740498118  0.3516999183818753  1.0000
  H   H28       1.0  0.648433191361697  0.6928738494004492  0.6483006790639294  1.0000
  H   H29       1.0  0.2265762507049303  0.4349564643538386  0.5253159561102407  1.0000
  H   H30       1.0  0.7734250641892401  0.5650440590964223  0.47468558482574946  1.0000
  H   H31       1.0  0.4019422039169527  0.8803037933530645  0.7181585506960814  1.0000
  H   H32       1.0  0.5980582697514337  0.119697649398681  0.2818417675698015  1.0000
  H   H33       1.0  0.6109500387415636  0.8059856229856662  0.41093833509609096  1.0000
  H   H34       1.0  0.3890493246833345  0.1940149004646017  0.5890614657337423  1.0000
  H   H35       1.0  0.5236819438496596  0.5831965861501232  0.30771580482912947  1.0000
  H   H36       1.0  0.4763193710445038  0.4168039373001449  0.6922857361068608  1.0000
  H   H37       1.0  0.9116209504691001  0.5124260001998238  0.9491871611787204  1.0000
  H   H38       1.0  0.0883793886904343  0.48757452325043715  0.05081430632016283  1.0000
  H   H39       1.0  0.7322524638003785  0.3647806664620745  0.945896910134813  1.0000
  H   H40       1.0  0.2677460583987425  0.6352207762896711  0.05410326125685553  1.0000
  H   H41       1.0  0.6415586905122056  0.1762227395916511  0.7508276337730707  1.0000
  H   H42       1.0  0.3584391249699976  0.8237805417630567  0.2491717589474404  1.0000
  H   H43       1.0  0.7348336822664906  0.1333474377959831  0.5594212698804952  1.0000
  H   H44       1.0  0.2651659501761259  0.8666549242572401  0.4405794189472302  1.0000
  H   H45       1.0  0.9189418944789907  0.2788094305151745  0.5660861972135222  1.0000
  H   H46       1.0  0.0810587136982548  0.7211929315380488  0.43391456505130316  1.0000
  H   H47       1.0  0.5930120367717323  0.5460871432464174  0.9752914812171696  1.0000
  H   H48       1.0  0.4069886055781566  0.4539087836964342  0.024707839724093978  1.0000
  H   H49       1.0  0.7760948774963126  0.578182715870021  0.13633199186657657  1.0000
  H   H50       1.0  0.22390452010122897  0.4218113724698753  0.8636671642556591  1.0000
  H   H51       1.0  0.8539761109629538  0.7885326843593887  0.30958543612324246  1.0000
  H   H52       1.0  0.14602355565229166  0.2114632425834628  0.690413811380914  1.0000
  H   H53       1.0  0.7426427393507069  0.9657050623814314  0.3255716423658369  1.0000
  H   H54       1.0  0.2573598544684401  0.0342908645614202  0.6744262322176908  1.0000
  H   H55       1.0  0.5543739512812849  0.9293154325377486  0.16467212180689464  1.0000
  H   H56       1.0  0.44562807032980345  0.0706832523095571  0.8353262147203891  1.0000
  C   C1        1.0  0.5114584204815885  0.8556747873622044  0.5693365905941545  1.0000
  C   C2        1.0  0.4885419186779459  0.1443257360880565  0.43066248705680726  1.0000
  C   C3        1.0  0.1869578519352544  0.9555412652019726  0.9278538467956067  1.0000
  C   C4        1.0  0.8130405357550075  0.0444592582482883  0.07214667721309097  1.0000
  C   C5        1.0  0.029509240672943818  0.9855491041610875  0.81629003439879  1.0000
  C   C6        1.0  0.970489012508466  0.0144504999876958  0.18370924899498678  1.0000
  C   C7        1.0  0.0555147251832864  0.8621668944245613  0.7544560000368391  1.0000
  C   C8        1.0  0.9444854794673888  0.137832709724222  0.24554422684713018  1.0000
  C   C9        1.0  0.9865550019240247  0.7790096403125375  0.6386658213965857  1.0000
  C   C10       1.0  0.013444226992021397  0.22098996383624578  0.3613335354342979  1.0000
  C   C11       1.0  0.8927128029533835  0.8231499009467454  0.5879908242139391  1.0000
  C   C12       1.0  0.1072854502280265  0.1768497032020377  0.41201005241178723  1.0000
  C   C13       1.0  0.8678263479306666  0.9461643900906722  0.650482756184914  1.0000
  C   C14       1.0  0.13217190525074327  0.0538352140581111  0.34951652720886267  1.0000
  C   C15       1.0  0.9354869795642173  0.0301852641450466  0.7659018888796822  1.0000
  C   C16       1.0  0.0645122493518286  0.9698143400037367  0.23409826456718008  1.0000
  C   C17       1.0  0.1271470348378827  0.1718983454226759  0.01703831329407278  1.0000
  C   C18       1.0  0.8728521940781634  0.8281012587261003  0.9829618401527894  1.0000
  C   C19       1.0  0.23191902352566274  0.20652567432632912  0.12536693414950406  1.0000
  C   C20       1.0  0.7680811811250123  0.7934739298224541  0.8746324961184867  1.0000
  C   C21       1.0  0.23952245216800355  0.3417962908216126  0.21954176239454876  1.0000
  C   C22       1.0  0.7604780215003828  0.6582051519301331  0.780458555871334  1.0000
  C   C23       1.0  0.3537057133191936  0.3763123842460061  0.3210730696410948  1.0000
  C   C24       1.0  0.6462947603491926  0.6236890585057395  0.6789272486247881  1.0000
  C   C25       1.0  0.2837097764997552  0.5099080334419952  0.522227168766868  1.0000
  C   C26       1.0  0.7162915383944153  0.4900924900082657  0.47777357555315086  1.0000
  C   C27       1.0  0.4124598181153587  0.6093304886661954  0.45631823068583083  1.0000
  C   C28       1.0  0.5875396798183984  0.39067095408555014  0.5436828107589236  1.0000
  C   C29       1.0  0.3780514930581305  0.692201840017475  0.5715232271404388  1.0000
  C   C30       1.0  0.6219461879152135  0.3078005220357554  0.42847651819709404  1.0000
  C   C31       1.0  0.4276240321100531  0.8171349113532925  0.6292406288158431  1.0000
  C   C32       1.0  0.5723763070494812  0.1828656120969683  0.3707584488351188  1.0000
  C   C33       1.0  0.5457145513056929  0.7721433775472093  0.45525128851220115  1.0000
  C   C34       1.0  0.45428662907961853  0.2278562266015669  0.5447474185769252  1.0000
  C   C35       1.0  0.4971218846715218  0.6472185799247256  0.39612585145174234  1.0000
  C   C36       1.0  0.5028784544880126  0.3527819435255353  0.6038748194311765  1.0000
  C   C37       1.0  0.0360584762587379  0.492128742789788  0.760939266910647  1.0000
  C   C38       1.0  0.9639419974096555  0.5078726999619576  0.239062644587193  1.0000
  C   C39       1.0  0.9266560190091655  0.4042067490991528  0.7581483506354587  1.0000
  C   C40       1.0  0.07334361343344402  0.5957956129540776  0.24185233819225962  1.0000
  C   C41       1.0  0.8728766905032331  0.4284422940559338  0.8647129006154229  1.0000
  C   C42       1.0  0.1271237831651533  0.5715591486958118  0.13528901088240983  1.0000
  C   C43       1.0  0.7716261391370125  0.3459873862757732  0.8620680081633338  1.0000
  C   C44       1.0  0.2283723830621085  0.6540140564759724  0.1379321632283349  1.0000
  C   C45       1.0  0.722026527122523  0.23940816901809817  0.7524545336995487  1.0000
  C   C46       1.0  0.27797128835968016  0.7605951123366097  0.24754406240498375  1.0000
  C   C47       1.0  0.7749000794244125  0.21507058159686918  0.6457617025181008  1.0000
  C   C48       1.0  0.22510136997861  0.7849308611548764  0.3542386891848891  1.0000
  C   C49       1.0  0.8770506289462858  0.2966944408377543  0.6485465356873377  1.0000
  C   C50       1.0  0.1229508204567367  0.7033070019139913  0.3514546526316307  1.0000
  C   C51       1.0  0.4521510150269705  0.7175313537372361  0.9653450954942571  1.0000
  C   C52       1.0  0.5478500308494816  0.2824673311100625  0.034654760827869786  1.0000
  C   C53       1.0  0.563527599775135  0.7363329076368713  0.06094369624942415  1.0000
  C   C54       1.0  0.43647499404401924  0.2636630193059872  0.9390541783341035  1.0000
  C   C55       1.0  0.626096980473271  0.6373259766823054  0.05273853462274039  1.0000
  C   C56       1.0  0.3739028206508337  0.3626708695620309  0.9472603602643872  1.0000
  C   C57       1.0  0.7291379093231213  0.6559877967567544  0.14277888274986575  1.0000
  C   C58       1.0  0.2708616227832721  0.3440072108846195  0.8572183275233911  1.0000
  C   C59       1.0  0.7717795247392589  0.7740702334524343  0.24066202559749428  1.0000
  C   C60       1.0  0.22822111761062305  0.2259256934904172  0.7593357021118194  1.0000
  C   C61       1.0  0.7094538166742055  0.8733888076092242  0.24946995277024075  1.0000
  C   C62       1.0  0.29054584994104005  0.1266071193336273  0.7505277015019658  1.0000
  C   C63       1.0  0.605299985412998  0.8542296454332927  0.16037455019376504  1.0000
  C   C64       1.0  0.3946988399764777  0.1457672008110507  0.8396242712562554  1.0000
  N   N1        1.0  0.15417791213553042  0.847001177884259  0.8272926142470922  1.0000
  N   N2        1.0  0.8458224270240038  0.152999345566009  0.17270885325179813  1.0000
  N   N3        1.0  0.1147262522568795  0.0417748979223092  0.9261259032848841  1.0000
  N   N4        1.0  0.8852720009245304  0.958224706226467  0.07387338010889265  1.0000
  N   N5        1.0  0.3503369634074219  0.49442423858909723  0.42856692222051146  1.0000
  N   N6        1.0  0.6496643514867415  0.5055762848611707  0.5714338220995073  1.0000
  N   N7        1.0  0.2978543516019698  0.626391804861349  0.6098765749171093  1.0000
  N   N8        1.0  0.7021461220664236  0.3736096378903966  0.3901253365807236  1.0000
  O   O1        1.0  0.0738669824274609  0.5924438397525265  0.8621705547828566  1.0000
  O   O2        1.0  0.9261344669755616  0.4075576029992192  0.13783143015208302  1.0000
  O   O3        1.0  0.08846006458878722  0.4658725731766751  0.6651303837927927  1.0000
  O   O4        1.0  0.9115413848142354  0.5341288695750706  0.3348716011421543  1.0000
  O   O5        1.0  0.42276469987631066  0.6112187339091975  0.8702018937065431  1.0000
  O   O6        1.0  0.577234260022017  0.3887790316366235  0.12979657512644846  1.0000
  O   O7        1.0  0.3895379729114766  0.8073572207960638  0.9821795794836559  1.0000
  O   O8        1.0  0.6104671104123655  0.19264238335271947  0.017819421353891546  1.0000
