data_image0
_chemical_formula_structural       Cu4H24C28O16
_chemical_formula_sum              "Cu4 H24 C28 O16"
_cell_length_a       8.528746768000925
_cell_length_b       8.528781914001355
_cell_length_c       14.559275851000747
_cell_angle_alpha    90.00003653739024
_cell_angle_beta     90.0000026406346
_cell_angle_gamma    89.99994669981488

_space_group_name_H-M_alt    "P 1"
_space_group_IT_number       1

loop_
  _space_group_symop_operation_xyz
  'x, y, z'

loop_
  _atom_site_type_symbol
  _atom_site_label
  _atom_site_symmetry_multiplicity
  _atom_site_fract_x
  _atom_site_fract_y
  _atom_site_fract_z
  _atom_site_occupancy
  Cu  Cu1       1.0  0.5000003770429017  0.8571456147212829  1.6669837070000007e-07  1.0000
  Cu  Cu2       1.0  0.4999995367723  0.1428665932355315  3.3451222200000014e-08  1.0000
  Cu  Cu3       1.0  0.1428613389690412  0.49999892133133284  0.5000002377030057  1.0000
  Cu  Cu4       1.0  0.8571386138973976  0.49999858909853157  0.4999995605694636  1.0000
  H   H1        1.0  0.7466661912616598  0.8494789052484039  0.7068485108974514  1.0000
  H   H2        1.0  0.2533326052520052  0.15051883063750893  0.706847686951555  1.0000
  H   H3        1.0  0.15051884430063464  0.7466670420856121  0.20684765427694882  1.0000
  H   H4        1.0  0.8494822581782271  0.2533324938223985  0.2068496322941584  1.0000
  H   H5        1.0  0.25333343649541007  0.8494789092568239  0.2931514177644772  1.0000
  H   H6        1.0  0.7466665002191702  0.15051720321753953  0.2931526677785641  1.0000
  H   H7        1.0  0.8494808790988129  0.746667036500348  0.7931529228736807  1.0000
  H   H8        1.0  0.15051792415417245  0.253330793452875  0.7931507607952781  1.0000
  H   H9        1.0  0.2533325891001751  0.1505174326823777  0.2931526610694775  1.0000
  H   H10       1.0  0.746667347613858  0.8494798522923547  0.29315142447378406  1.0000
  H   H11       1.0  0.8494822810704146  0.2533316408433349  0.7931507703010539  1.0000
  H   H12       1.0  0.15051886719243157  0.7466673616091699  0.7931529133681535  1.0000
  H   H13       1.0  0.7466665163710002  0.15051860117266364  0.7068476936606487  1.0000
  H   H14       1.0  0.2533334526478725  0.8494791347127019  0.706848504188379  1.0000
  H   H15       1.0  0.15051790126253198  0.25333047393156244  0.2068496227881624  1.0000
  H   H16       1.0  0.849480856207009  0.7466667169767902  0.2068476637824759  1.0000
  H   H17       1.0  0.9999999870863616  0.104657882772166  0.9160380241943641  1.0000
  H   H18       1.0  0.9999999982677604  0.8953400811204164  0.916036811599227  1.0000
  H   H19       1.0  0.8953409427282747  0.9999972408639761  0.4160387477550245  1.0000
  H   H20       1.0  0.10465971095590727  0.9999964361338701  0.4160387370019407  1.0000
  H   H21       1.0  0.9999999545991753  0.1046562568083189  0.083961612978328  1.0000
  H   H22       1.0  7.593319892999997e-07  0.8953389202885945  0.0839631341730964  1.0000
  H   H23       1.0  0.10465854500655067  0.9999977001488816  0.583961237064699  1.0000
  H   H24       1.0  0.8953409492841259  0.9999985048784481  0.5839612478177969  1.0000
  C   C1        1.0  0.7134823506517732  4.836288496800001e-06  0.8773740034883132  1.0000
  C   C2        1.0  0.8519423155108965  1.2180129971000001e-06  0.8106330486125941  1.0000
  C   C3        1.0  0.28651692430687353  1.5173821808000002e-06  0.8773739976811471  1.0000
  C   C4        1.0  0.14805812674347857  3.7291128050000006e-07  0.8106337258872571  1.0000
  C   C5        1.0  0.9999953718041323  0.7134802892623143  0.3773746848428701  1.0000
  C   C6        1.0  7.883684176999999e-07  0.8519401149061351  0.3106337403146924  1.0000
  C   C7        1.0  0.999994397894333  0.2865154498855845  0.37737597888822444  1.0000
  C   C8        1.0  1.1157683914999995e-06  0.14805530925280416  0.3106349827012735  1.0000
  C   C9        1.0  0.28651689483782405  2.2785615457e-06  0.12262629508554572  1.0000
  C   C10       1.0  0.14805810248661536  3.4334242100000074e-08  0.1893665631128343  1.0000
  C   C11       1.0  0.7134823211843653  2.0799667339999994e-06  0.12262630089205122  1.0000
  C   C12       1.0  0.8519422912540618  8.794363424000001e-07  0.1893665726855218  1.0000
  C   C13       1.0  0.9999965538849407  0.7134804229179467  0.6226252066780873  1.0000
  C   C14       1.0  0.9999996306499593  0.8519414938079564  0.6893661756661942  1.0000
  C   C15       1.0  0.9999944074698277  0.2865155835402645  0.6226237533340396  1.0000
  C   C16       1.0  1.1305555744999998e-06  0.14805551565221006  0.6893646706631812  1.0000
  C   C17       1.0  0.8522479405946225  0.8522483255437338  0.7500003843049328  1.0000
  C   C18       1.0  0.14774968678347009  0.1477494573760012  0.7499988696066922  1.0000
  C   C19       1.0  0.14775051208092543  0.8522483807377129  0.2499995453902457  1.0000
  C   C20       1.0  0.8522494212629322  0.1477500297041203  0.2500014840906033  1.0000
  C   C21       1.0  0.14774966726148617  0.14774918488834027  0.2500014745095456  1.0000
  C   C22       1.0  0.8522490935777112  0.8522480530536641  0.249999554971069  1.0000
  C   C23       1.0  0.8522494407849164  0.14775030219177412  0.7499988791877428  1.0000
  C   C24       1.0  0.14775053160303733  0.8522486532272424  0.7500003747241308  1.0000
  C   C25       1.0  3.4041775599999996e-08  4.7515475640000015e-07  0.8718785281569765  1.0000
  C   C26       1.0  0.9999999283420209  0.9999971681182697  0.3718799595118866  1.0000
  C   C27       1.0  0.9999999188241232  0.999998207775484  0.1281212701157131  1.0000
  C   C28       1.0  0.9999999383467039  0.9999973077635217  0.6281200389073334  1.0000
  O   O1        1.0  0.6635684019182617  0.8666514921456853  0.9045458455481779  1.0000
  O   O2        1.0  0.3364280650163278  0.13336052922765873  0.9045457043054413  1.0000
  O   O3        1.0  0.13335575944228137  0.6635685386701199  0.4045463448137099  1.0000
  O   O4        1.0  0.866650048497476  0.3364265227160317  0.4045462937585995  1.0000
  O   O5        1.0  0.3364300373580986  0.8666523758705013  0.09545340267356289  1.0000
  O   O6        1.0  0.6635710564155983  0.133361108626751  0.09545464402341249  1.0000
  O   O7        1.0  0.8666487312806906  0.6635706466342626  0.595454201333709  1.0000
  O   O8        1.0  0.13335709156502418  0.336428140333105  0.5954520697915129  1.0000
  O   O9        1.0  0.33642803342547006  0.1333612607907  0.0954539527270839  1.0000
  O   O10       1.0  0.6635707153383306  0.8666510512068871  0.09545340712229229  1.0000
  O   O11       1.0  0.8666500559512896  0.3364266267562642  0.5954534534583971  1.0000
  O   O12       1.0  0.13335576689609496  0.6635686427103523  0.5954535045135074  1.0000
  O   O13       1.0  0.6635722605116428  0.13336037706278603  0.9045457087544335  1.0000
  O   O14       1.0  0.3364300689490135  0.8666516443082061  0.9045465279466143  1.0000
  O   O15       1.0  0.1333582566165319  0.3364280362938246  0.4045476574811175  1.0000
  O   O16       1.0  0.8666487238268273  0.6635705425932842  0.4045456679392103  1.0000
