data_image0
_chemical_formula_structural       Zn4H40C44N16O8
_chemical_formula_sum              "Zn4 H40 C44 N16 O8"
_cell_length_a       9.43359625854784
_cell_length_b       9.794417636005221
_cell_length_c       19.91102836604167
_cell_angle_alpha    100.03576199728614
_cell_angle_beta     103.70756229543555
_cell_angle_gamma    90.01611981641553

_space_group_name_H-M_alt    "P 1"
_space_group_IT_number       1

loop_
  _space_group_symop_operation_xyz
  'x, y, z'

loop_
  _atom_site_type_symbol
  _atom_site_label
  _atom_site_symmetry_multiplicity
  _atom_site_fract_x
  _atom_site_fract_y
  _atom_site_fract_z
  _atom_site_occupancy
  Zn  Zn1       1.0  0.9762832578136981  0.9100891424549786  0.5723804233462245  1.0000
  Zn  Zn2       1.0  0.4039582523464631  0.5901083494279149  0.4277029074685855  1.0000
  Zn  Zn3       1.0  0.023717861097054496  0.0899141204583671  0.427619364583343  1.0000
  Zn  Zn4       1.0  0.5960428099975064  0.4098928318149717  0.572297815951032  1.0000
  H   H1        1.0  0.1698470280531552  0.6944420436819171  0.6016820895836261  1.0000
  H   H2        1.0  0.30994033235617763  0.6085547316311165  0.5690294956804395  1.0000
  H   H3        1.0  0.12565962579102335  0.549923473433516  0.5312040349539231  1.0000
  H   H4        1.0  0.16018686692211054  0.9418748652540361  0.328303509771942  1.0000
  H   H5        1.0  0.25368587249494107  0.7825360236884151  0.3166931572195891  1.0000
  H   H6        1.0  0.3487902783426621  0.9343067554181987  0.3690331919640215  1.0000
  H   H7        1.0  0.4142196126203361  0.13177557312666718  0.7786556550541662  1.0000
  H   H8        1.0  0.08452867606074221  0.8360001552131847  0.7865389313181836  1.0000
  H   H9        1.0  0.2052227517794521  0.8345122900864864  0.9133917155795501  1.0000
  H   H10       1.0  0.5366495292959925  0.12778352810745017  0.905113828099303  1.0000
  H   H11       1.0  0.5691821178523925  0.805269790235549  0.39823836100071464  1.0000
  H   H12       1.0  0.7421301050348319  0.8908063404060726  0.43109055091991877  1.0000
  H   H13       1.0  0.5956397694751632  0.9499373350049112  0.4687205800119187  1.0000
  H   H14       1.0  0.8324073654744597  0.558019139830442  0.6718831150454961  1.0000
  H   H15       1.0  0.9375764466430281  0.7173183481465841  0.6833436304993086  1.0000
  H   H16       1.0  0.98003361699827  0.5655325550475895  0.6309908531001369  1.0000
  H   H17       1.0  0.635472470126018  0.36857190941316276  0.22148515650889772  1.0000
  H   H18       1.0  0.29776861893746087  0.6640498694394806  0.21336406927317597  1.0000
  H   H19       1.0  0.29162600519788373  0.6652689725707647  0.08651491716063478  1.0000
  H   H20       1.0  0.6315483479245357  0.37238291376188926  0.09504536718716844  1.0000
  H   H21       1.0  0.83015250617634  0.3055570576955731  0.3983191906499214  1.0000
  H   H22       1.0  0.6900597226897034  0.3914464548201693  0.43097022409769886  1.0000
  H   H23       1.0  0.8743404292548504  0.45007771301776955  0.4687956848242152  1.0000
  H   H24       1.0  0.8398105567449721  0.0581221708773256  0.6716955718826156  1.0000
  H   H25       1.0  0.7463125584702225  0.2174610072345473  0.6833069280764333  1.0000
  H   H26       1.0  0.6512060420600818  0.06568821025864219  0.6309646947530111  1.0000
  H   H27       1.0  0.5857790582604351  0.8682266469536231  0.22134490848198138  1.0000
  H   H28       1.0  0.9154713704014698  0.16399998739910157  0.21346181959803087  1.0000
  H   H29       1.0  0.7947826858081015  0.1654888917487227  0.08660901708230276  1.0000
  H   H30       1.0  0.4633572444735491  0.8722155822672946  0.09488596515652147  1.0000
  H   H31       1.0  0.43082128797165353  0.1947293143384741  0.6017624266543393  1.0000
  H   H32       1.0  0.2578738044382477  0.1091927615637474  0.5689107385558785  1.0000
  H   H33       1.0  0.4043611969025563  0.050061770575041506  0.5312799521116461  1.0000
  H   H34       1.0  0.16759844039644636  0.44197996974516934  0.3281168013549518  1.0000
  H   H35       1.0  0.062427375447484286  0.2826797219993011  0.31665643654235964  1.0000
  H   H36       1.0  0.019971676639919222  0.4344655132932331  0.3690095926176511  1.0000
  H   H37       1.0  0.364518642500194  0.6314251245276167  0.7785141621926571  1.0000
  H   H38       1.0  0.70222950889481  0.3359523592525377  0.78663486565614  1.0000
  H   H39       1.0  0.7083746580469421  0.3347353307782441  0.9134844645962231  1.0000
  H   H40       1.0  0.36844520414799575  0.6276141191729464  0.9049542070458756  1.0000
  C   C1        1.0  0.18389648324995284  0.739127816132175  0.5026466492175032  1.0000
  C   C2        1.0  0.20192680327024706  0.8384207639517739  0.4159583269329659  1.0000
  C   C3        1.0  0.19839634566540812  0.6429977160021068  0.5534411495318494  1.0000
  C   C4        1.0  0.24278491592346546  0.8763618437140225  0.35378678333947994  1.0000
  C   C5        1.0  0.17420573440989529  0.9854572645663707  0.6992663021228438  1.0000
  C   C6        1.0  0.2434333373692753  0.9827120896097412  0.7748747536976383  1.0000
  C   C7        1.0  0.3707759238383519  0.06572121376129302  0.8085263235248165  1.0000
  C   C8        1.0  0.1837435367934291  0.8990799248443577  0.8126342412380083  1.0000
  C   C9        1.0  0.2502430544416613  0.8977011373897528  0.8827313621559013  1.0000
  C   C10       1.0  0.4385025865845266  0.06380607580505432  0.8781802240970081  1.0000
  C   C11       1.0  0.3788712837099413  0.9786477102967126  0.9156336678860342  1.0000
  C   C12       1.0  0.6817162179010908  0.7606723763079373  0.4974260091701694  1.0000
  C   C13       1.0  0.7862516222266862  0.6614262378265535  0.5841590863454441  1.0000
  C   C14       1.0  0.6458848309337955  0.8566616633887488  0.4465539606367983  1.0000
  C   C15       1.0  0.8893767102278004  0.6234866830904836  0.6463048431126167  1.0000
  C   C16       1.0  0.47488001351213444  0.5149508279081516  0.3007987883317611  1.0000
  C   C17       1.0  0.4684614696540379  0.5175619810058334  0.22517963211869574  1.0000
  C   C18       1.0  0.5621296660918845  0.4345159588245977  0.19156437468097204  1.0000
  C   C19       1.0  0.3709505876501353  0.6009981947556328  0.1873255012177992  1.0000
  C   C20       1.0  0.3673864201356665  0.6022419483090075  0.11721621943188856  1.0000
  C   C21       1.0  0.5602693561776989  0.4363369121408026  0.12191248743084768  1.0000
  C   C22       1.0  0.463190392565302  0.5213622229368083  0.08437602891523707  1.0000
  C   C23       1.0  0.8161068831746334  0.2608712944493732  0.4973530116514551  1.0000
  C   C24       1.0  0.7980732037925051  0.16157938466804467  0.584041297197146  1.0000
  C   C25       1.0  0.8016022858159104  0.35700451008570877  0.4465582872182026  1.0000
  C   C26       1.0  0.7572135236253673  0.12363623104793929  0.6462122708184738  1.0000
  C   C27       1.0  0.8257977950645525  0.014560559623397798  0.3007289446593404  1.0000
  C   C28       1.0  0.7565623732487976  0.0172880464026903  0.22512711476242223  1.0000
  C   C29       1.0  0.6292286504004779  0.9342830867767089  0.19147369243964354  1.0000
  C   C30       1.0  0.8162591016481288  0.10092437409538492  0.18736602101569838  1.0000
  C   C31       1.0  0.7497578725366125  0.10229797419773229  0.11726804318156064  1.0000
  C   C32       1.0  0.5615008192395123  0.9361930287689689  0.12182056355804598  1.0000
  C   C33       1.0  0.6211336502285717  0.0213534741426997  0.08436656295508979  1.0000
  C   C34       1.0  0.3182885720880578  0.23932569463708117  0.5025739347268754  1.0000
  C   C35       1.0  0.21375173561423816  0.3385718289160025  0.41584160566159056  1.0000
  C   C36       1.0  0.3541195821883393  0.1433374359768749  0.5534478306597279  1.0000
  C   C37       1.0  0.11062914362622693  0.376513464316595  0.35369516893585745  1.0000
  C   C38       1.0  0.5251143386918287  0.48505347325027504  0.699200830472094  1.0000
  C   C39       1.0  0.5315330983002512  0.48243609055960224  0.7748199146177513  1.0000
  C   C40       1.0  0.43786149451744905  0.5654821129476416  0.8084350396686091  1.0000
  C   C41       1.0  0.6290451487189372  0.3990050727737824  0.8126732738280467  1.0000
  C   C42       1.0  0.6326131792442881  0.39776027857794105  0.88278309417354  1.0000
  C   C43       1.0  0.4397256760261784  0.5636611628279625  0.8780864343402399  1.0000
  C   C44       1.0  0.536805703503461  0.4786379284940237  0.9156229610072728  1.0000
  N   N1        1.0  0.09751018524935541  0.8469804889777206  0.5032302841026494  1.0000
  N   N2        1.0  0.10894045092193495  0.9098803287050004  0.4481701397703475  1.0000
  N   N3        1.0  0.25168315254419593  0.7305938078033947  0.4488514241616102  1.0000
  N   N4        1.0  0.4386320731460603  0.9681358153505145  0.9865023102611943  1.0000
  N   N5        1.0  0.5945845809109471  0.6529095015463396  0.496844232205106  1.0000
  N   N6        1.0  0.6609446496287249  0.5900478179904454  0.5519510030682397  1.0000
  N   N7        1.0  0.8032624278069989  0.7691789909292766  0.5512453057528788  1.0000
  N   N8        1.0  0.4521231960897368  0.5318408321849477  0.013494601197997653  1.0000
  N   N9        1.0  0.9024907897120399  0.15301966044123816  0.4967692168828393  1.0000
  N   N10       1.0  0.8910607073882705  0.0901229282008131  0.5518307749453158  1.0000
  N   N11       1.0  0.748316902501678  0.26940737864789105  0.5511482956165353  1.0000
  N   N12       1.0  0.5613723091602837  0.031864333861634  0.013497323111167149  1.0000
  N   N13       1.0  0.4054178090313415  0.34708856439708313  0.5031565829465522  1.0000
  N   N14       1.0  0.33905682039804225  0.40995128498531136  0.44805003087606116  1.0000
  N   N15       1.0  0.1967413942835138  0.23081907921661582  0.44875476128878944  1.0000
  N   N16       1.0  0.5478749231588653  0.4681603526680788  0.9865053648693873  1.0000
  O   O1        1.0  0.05655239536910984  0.9043055801169188  0.6716345762909269  1.0000
  O   O2        1.0  0.22699424554425465  0.05995977802295731  0.665796807203499  1.0000
  O   O3        1.0  0.38513639576078873  0.596320101127553  0.3284600426610496  1.0000
  O   O4        1.0  0.5610131177423767  0.4403495975881526  0.334293356632287  1.0000
  O   O5        1.0  0.9434389400053788  0.09569455530319  0.3283672829268909  1.0000
  O   O6        1.0  0.7729827117811681  0.9400382337020547  0.3342134686041973  1.0000
  O   O7        1.0  0.6148616275215704  0.40367900806253937  0.6715397321102899  1.0000
  O   O8        1.0  0.43898867258462104  0.5596463952965466  0.6657067654025822  1.0000
