data_image0
_chemical_formula_structural       Cu12H40C48I12N16
_chemical_formula_sum              "Cu12 H40 C48 I12 N16"
_cell_length_a       7.373754677
_cell_length_b       12.070602355
_cell_length_c       18.374
_cell_angle_alpha    90.0
_cell_angle_beta     90.0
_cell_angle_gamma    90.0

_space_group_name_H-M_alt    "P 1"
_space_group_IT_number       1

loop_
  _space_group_symop_operation_xyz
  'x, y, z'

loop_
  _atom_site_type_symbol
  _atom_site_label
  _atom_site_symmetry_multiplicity
  _atom_site_fract_x
  _atom_site_fract_y
  _atom_site_fract_z
  _atom_site_occupancy
  Cu  Cu1       1.0  0.5616446683421472  0.7216259589888524  0.2708299771416165  1.0000
  Cu  Cu2       1.0  0.9383564144847654  0.2783705320727563  0.7708316098835297  1.0000
  Cu  Cu3       1.0  0.4383546973812642  0.221627713458048  0.2291683901164703  1.0000
  Cu  Cu4       1.0  0.0616443073998383  0.7783729198989066  0.7291705671056903  1.0000
  Cu  Cu5       1.0  0.5700759225299095  0.9976544372710379  0.2820300424512894  1.0000
  Cu  Cu6       1.0  0.9299251602970031  0.0023437107087076  0.7820300424512894  1.0000
  Cu  Cu7       1.0  0.4299234431934948  0.49765619174023373  0.2179694133014038  1.0000
  Cu  Cu8       1.0  0.0700755615876076  0.5023452700757929  0.7179688690540971  1.0000
  Cu  Cu9       1.0  0.4166262826158871  0.8685274928021585  0.18094753455970647  1.0000
  Cu  Cu10      1.0  0.0833727221652154  0.1314723120957311  0.6809475345597065  1.0000
  Cu  Cu11      1.0  0.5833730831075243  0.36852759035321725  0.3190524654402934  1.0000
  Cu  Cu12      1.0  0.9166279997193882  0.6314705576265355  0.8190519211929868  1.0000
  H   H1        1.0  0.644253871751097  0.0951725494895541  0.4240083814085125  1.0000
  H   H2        1.0  0.8557431425922104  0.9048239415720547  0.9240083814085125  1.0000
  H   H3        1.0  0.35574413781110786  0.5951749373157114  0.0759916185914875  1.0000
  H   H4        1.0  0.1442616477759984  0.4048281814184591  0.5759899858495672  1.0000
  H   H5        1.0  0.6693835388090434  0.0513628054148612  0.5167247197126343  1.0000
  H   H6        1.0  0.8306161878566627  0.9486320287286107  0.0167247197126343  1.0000
  H   H7        1.0  0.3306144707531615  0.5513651932410113  0.9832752802873655  1.0000
  H   H8        1.0  0.1693858901891403  0.44863875395222413  0.4832736475454453  1.0000
  H   H9        1.0  0.3264008779010794  0.1314988227859644  0.374215739632092  1.0000
  H   H10       1.0  0.1735994830412224  0.8684951828984353  0.8742151953847851  1.0000
  H   H11       1.0  0.6735984878223248  0.6315028675302585  0.125784260367908  1.0000
  H   H12       1.0  0.8264066634881857  0.3684994227448399  0.6257837161206083  1.0000
  H   H13       1.0  0.0107543583253928  0.18964753644226565  0.40630945901817467  1.0000
  H   H14       1.0  0.4892514272617134  0.8103530969146888  0.9063094590181747  1.0000
  H   H15       1.0  0.9892477197204173  0.6896466104321419  0.0936899967345184  1.0000
  H   H16       1.0  0.5107574315901005  0.3103540229248125  0.5936916294764316  1.0000
  H   H17       1.0  0.9123099824548148  0.1780515948410581  0.5375421791662163  1.0000
  H   H18       1.0  0.5876897442108912  0.8219523523521772  0.0375421791662163  1.0000
  H   H19       1.0  0.0876920955909881  0.6780481834537255  0.9624583650810904  1.0000
  H   H20       1.0  0.4123123338349188  0.32194913606695513  0.4624589093283972  1.0000
  H   H21       1.0  0.4142448635466067  0.062093835747106106  0.6020621530423398  1.0000
  H   H22       1.0  0.0857514289120971  0.9379051406917114  0.10206215304233977  1.0000
  H   H23       1.0  0.585755858338004  0.5620929097369824  0.8979373027103533  1.0000
  H   H24       1.0  0.9142452244889085  0.43790855207905116  0.3979367584630467  1.0000
  H   H25       1.0  0.568455309894496  0.8920756134046288  0.6018335691738343  1.0000
  H   H26       1.0  0.9315484852548224  0.10791673536162702  0.1018335691738343  1.0000
  H   H27       1.0  0.4315440558289154  0.39208068171010524  0.8981664308261657  1.0000
  H   H28       1.0  0.0684508804685819  0.6079265793194112  0.3981664308261657  1.0000
  H   H29       1.0  0.532594339251574  0.6986735004576305  0.6448350930662909  1.0000
  H   H30       1.0  0.9674135243813424  0.3013196767676973  0.1448372700555112  1.0000
  H   H31       1.0  0.4674090949554355  0.198677740304035  0.8551638184390953  1.0000
  H   H32       1.0  0.0325763482136523  0.8013278638073373  0.3551654511810156  1.0000
  H   H33       1.0  0.505359910009382  0.5432131559933211  0.5587417002285803  1.0000
  H   H34       1.0  0.9946411728175235  0.4567808496910787  0.058745509959727785  1.0000
  H   H35       1.0  0.494638099552823  0.0432182242987977  0.9412561227821925  1.0000
  H   H36       1.0  0.0053500559386706  0.9567873798125819  0.4412588440187193  1.0000
  H   H37       1.0  0.513509082667305  0.573969698962884  0.4232937846957653  1.0000
  H   H38       1.0  0.9864879316760025  0.4260276205577966  0.9232965059322993  1.0000
  H   H39       1.0  0.48648350225009546  0.07397145343207971  0.076705126809621  1.0000
  H   H40       1.0  0.013514146369800499  0.9260316653020908  0.5767062153042346  1.0000
  C   C1        1.0  0.5815707448711507  0.047456620900341306  0.46840807663001977  1.0000
  C   C2        1.0  0.9184276256333632  0.9525406986203393  0.9684080766300196  1.0000
  C   C3        1.0  0.4184272646910543  0.5474581802674265  0.0315913791226734  1.0000
  C   C4        1.0  0.08157445241244692  0.4525457669258159  0.5315908348753666  1.0000
  C   C5        1.0  0.393745130829501  0.0894942910245504  0.48553336235985967  1.0000
  C   C6        1.0  0.106248449306797  0.9105038569551951  0.9855328181125529  1.0000
  C   C7        1.0  0.606252878732704  0.5894966788507077  0.014466637640140298  1.0000
  C   C8        1.0  0.893749560255408  0.4105080968015998  0.5144666376401402  1.0000
  C   C9        1.0  0.2793122486735555  0.1276663711286687  0.4304158049417666  1.0000
  C   C10       1.0  0.2206908245911521  0.872329291473875  0.9304158049417665  1.0000
  C   C11       1.0  0.7206884732110552  0.6276695874138909  0.0695836508109267  1.0000
  C   C12       1.0  0.7793126096158574  0.3723343597793445  0.5695831065636199  1.0000
  C   C13       1.0  0.1039144958795575  0.1607003480813418  0.4483220855556738  1.0000
  C   C14       1.0  0.3960804404179399  0.8393027706528216  0.9483209970610673  1.0000
  C   C15       1.0  0.8960848698438468  0.6607002505302901  0.05167791444432619  1.0000
  C   C16       1.0  0.6039202814666709  0.3393028682038803  0.5516795471862395  1.0000
  C   C17       1.0  0.0488367210158529  0.1549906081716799  0.5205888755850694  1.0000
  C   C18       1.0  0.451167708410054  0.8450125105624836  0.020588331337762594  1.0000
  C   C19       1.0  0.9511653570299572  0.6549896821615563  0.9794105801676307  1.0000
  C   C20       1.0  0.548834369635756  0.3450109511953983  0.4794111244149377  1.0000
  C   C21       1.0  0.32885146119161845  0.0888480929500375  0.5567943833678013  1.0000
  C   C22       1.0  0.1711488997506834  0.911151711947852  0.0567943833678015  1.0000
  C   C23       1.0  0.6711479045317859  0.5888488238580507  0.9432050723848917  1.0000
  C   C24       1.0  0.8288518221339274  0.4111534664170478  0.4432045281375849  1.0000
  C   C25       1.0  0.5585743193826644  0.8400608107017717  0.4874659845433768  1.0000
  C   C26       1.0  0.9414240511218495  0.1599340234416999  0.9874670730379903  1.0000
  C   C27       1.0  0.44142504634074703  0.3400650505481765  0.012533471209316397  1.0000
  C   C28       1.0  0.0585780269239606  0.659940553563203  0.5125329269620094  1.0000
  C   C29       1.0  0.555453792458735  0.8242388993850656  0.5630749972787612  1.0000
  C   C30       1.0  0.9445500026905762  0.1757575916765433  0.0630749972787612  1.0000
  C   C31       1.0  0.4445469294258686  0.3242414823133331  0.936924458473932  1.0000
  C   C32       1.0  0.0554507191940345  0.6757632933389744  0.43692500272123874  1.0000
  C   C33       1.0  0.5360091531561508  0.7156304007000787  0.5865255251986525  1.0000
  C   C34       1.0  0.9639946419931604  0.28435946268896833  0.086526613693259  1.0000
  C   C35       1.0  0.4639902125672535  0.215637954382764  0.9134739305540407  1.0000
  C   C36       1.0  0.0359992990854394  0.7843701351058245  0.4134744748013475  1.0000
  C   C37       1.0  0.5205882441374854  0.6264550664174352  0.5368096222923668  1.0000
  C   C38       1.0  0.9794114825282279  0.3735414246441736  0.0368117992815939  1.0000
  C   C39       1.0  0.4794097654247195  0.1264576493457028  0.9631887449657128  1.0000
  C   C40       1.0  0.0205824585503791  0.8735462978475326  0.4631909219549327  1.0000
  C   C41       1.0  0.5250215351041589  0.6420566076215479  0.4619451398715597  1.0000
  C   C42       1.0  0.9749754792391485  0.3579365696037797  0.9619478611080864  1.0000
  C   C43       1.0  0.4749751182968467  0.1420616759270246  0.038053771633833784  1.0000
  C   C44       1.0  0.025025242645455095  0.8579439281843549  0.5380548601284403  1.0000
  C   C45       1.0  0.545119844105713  0.7514687116043249  0.4374959181452027  1.0000
  C   C46       1.0  0.9548785263988009  0.2485319217526296  0.9374964623925095  1.0000
  C   C47       1.0  0.4548768092952926  0.2514679806963116  0.0625035376074905  1.0000
  C   C48       1.0  0.0451249078082157  0.7485334811197148  0.5625040818547973  1.0000
  I   I1        1.0  0.7663219414697124  0.8720973229343016  0.18975835419614379  1.0000
  I   I2        1.0  0.7336777851960008  0.1279016535045159  0.6897578099488442  1.0000
  I   I3        1.0  0.233677424253699  0.3720990774034973  0.3102421900511558  1.0000
  I   I4        1.0  0.26632293668861  0.6279023844125291  0.8102421900511557  1.0000
  I   I5        1.0  0.2375899493191156  0.040432116446766  0.23684118863611298  1.0000
  I   I6        1.0  0.2624090554619869  0.9595701738283324  0.7368422771307264  1.0000
  I   I7        1.0  0.7624107725654952  0.5404295335185055  0.2631582671165802  1.0000
  I   I8        1.0  0.7375903102614174  0.4595669575431033  0.763158811363887  1.0000
  I   I9        1.0  0.2383290571737575  0.68341245593124  0.2176118428213769  1.0000
  I   I10       1.0  0.2616685914461456  0.3165865205075775  0.7176112985740701  1.0000
  I   I11       1.0  0.7616689523884475  0.1834133819413708  0.2823887014259299  1.0000
  I   I12       1.0  0.73832806195486  0.816585594497454  0.7823881571786231  1.0000
  N   N1        1.0  0.576353592730193  0.9322210830132178  0.4448187656471134  1.0000
  N   N2        1.0  0.9236447777743209  0.0677754080483908  0.9448182213998065  1.0000
  N   N3        1.0  0.4236457729932183  0.4322236659414855  0.055181778600193396  1.0000
  N   N4        1.0  0.0763586564326957  0.5677794527926849  0.5551806901055869  1.0000
  N   N5        1.0  0.5718185896734268  0.9038041084570239  0.3732703820616123  1.0000
  N   N6        1.0  0.9281770685086741  0.09619238260458471  0.8732703820616123  1.0000
  N   N7        1.0  0.4281780637275716  0.4038075198443565  0.1267296179383948  1.0000
  N   N8        1.0  0.0718263656983353  0.596195598889814  0.6267296179383945  1.0000
  N   N9        1.0  0.555357505013454  0.7949768965775874  0.3683220855556754  1.0000
  N   N10       1.0  0.9446367970074547  0.20501959448402127  0.8683226298029822  1.0000
  N   N11       1.0  0.44463779222635214  0.294979479505848  0.13167791444432447  1.0000
  N   N12       1.0  0.0553652810383554  0.7050236392283155  0.6316779144443245  1.0000
  N   N13       1.0  0.1598995425868566  0.12119859117005663  0.5745047349515601  1.0000
  N   N14       1.0  0.3400981060330466  0.8788045275641068  0.0745047349515602  1.0000
  N   N15       1.0  0.8401011792977471  0.6211968367008609  0.925494720801133  1.0000
  N   N16       1.0  0.6599012596903648  0.37880379665609354  0.4254958092957465  1.0000
