data_image0
_chemical_formula_structural       Ag6H102C60S6N12O24
_chemical_formula_sum              "Ag6 H102 C60 S6 N12 O24"
_cell_length_a       9.928775691174524
_cell_length_b       17.511399176486922
_cell_length_c       17.50672620375589
_cell_angle_alpha    116.52737279301947
_cell_angle_beta     100.90692387527962
_cell_angle_gamma    100.8958909784917

_space_group_name_H-M_alt    "P 1"
_space_group_IT_number       1

loop_
  _space_group_symop_operation_xyz
  'x, y, z'

loop_
  _atom_site_type_symbol
  _atom_site_label
  _atom_site_symmetry_multiplicity
  _atom_site_fract_x
  _atom_site_fract_y
  _atom_site_fract_z
  _atom_site_occupancy
  Ag  Ag1       1.0  0.6284902071239388  0.670085555292964  0.42455713719160587  1.0000
  Ag  Ag2       1.0  0.9585187753731785  0.7545472847580541  0.3298095789316236  1.0000
  Ag  Ag3       1.0  0.20350106641848956  0.5751827404465288  0.24536579108551854  1.0000
  Ag  Ag4       1.0  0.3715076960380586  0.32991601089767636  0.5754443580516195  1.0000
  Ag  Ag5       1.0  0.04148318741489025  0.245458311058762  0.6701930048940099  1.0000
  Ag  Ag6       1.0  0.79649483604679  0.42481479656888865  0.7546359750607721  1.0000
  H   H1        1.0  0.2956538607942676  0.3483994763947891  0.17416917363170376  1.0000
  H   H2        1.0  0.9471797827261805  0.8257139110690941  0.6513747750415176  1.0000
  H   H3        1.0  0.121946859142142  0.8256898476690538  0.1741658001289609  1.0000
  H   H4        1.0  0.7043427060805527  0.6515994035756237  0.8258321210966387  1.0000
  H   H5        1.0  0.05282294151041361  0.17428295387540524  0.3486239815575018  1.0000
  H   H6        1.0  0.8780547998014185  0.174311046704986  0.8258340763910965  1.0000
  H   H7        1.0  0.1666621085371318  0.3954396362550128  0.21904815313752835  1.0000
  H   H8        1.0  0.7711616614548689  0.8236029671862752  0.6043052229908455  1.0000
  H   H9        1.0  0.9480620520932134  0.7809178116383747  0.1763653037772457  1.0000
  H   H10       1.0  0.8333358274752242  0.6045599157286219  0.7809547289753526  1.0000
  H   H11       1.0  0.22884072684290396  0.1763932261255974  0.39569319764176203  1.0000
  H   H12       1.0  0.05194064004906812  0.2190830831162742  0.8236358241609382  1.0000
  H   H13       1.0  0.1674399024256417  0.3187049868371261  0.30882754530065176  1.0000
  H   H14       1.0  0.8487354209659866  0.9901148808089741  0.681314860260308  1.0000
  H   H15       1.0  0.8588638641395434  0.6911979145644337  0.009760169641573682  1.0000
  H   H16       1.0  0.832558026118626  0.6812945648362501  0.6911741934614569  1.0000
  H   H17       1.0  0.15126287561140828  0.0098813126868791  0.31868484312905576  1.0000
  H   H18       1.0  0.14113645180480458  0.30880230888227084  0.9902421212216553  1.0000
  H   H19       1.0  0.12963030675925316  0.23925678368037498  0.19408642825756323  1.0000
  H   H20       1.0  0.8903231649849628  0.9547089026443627  0.7606534449469606  1.0000
  H   H21       1.0  0.9358355846991202  0.8059183310150786  0.04514364932294515  1.0000
  H   H22       1.0  0.8703703488579535  0.7607441115540823  0.8059167702474639  1.0000
  H   H23       1.0  0.1096737699229848  0.04528661914851989  0.2393458144086296  1.0000
  H   H24       1.0  0.0641633546395894  0.1940812201081457  0.954855910804973  1.0000
  H   H25       1.0  0.38539051523492407  0.2385709317091695  0.22238898981679966  1.0000
  H   H26       1.0  0.14684983345534178  0.9838512290323038  0.7615090938528796  1.0000
  H   H27       1.0  0.16333705914064475  0.77764986560787  0.016194604226143532  1.0000
  H   H28       1.0  0.6146070736364848  0.7614279481764683  0.7776118413035108  1.0000
  H   H29       1.0  0.8531484452078782  0.016146979291058  0.2384915093683659  1.0000
  H   H30       1.0  0.8366629096627418  0.2223496857408378  0.983805635644508  1.0000
  H   H31       1.0  0.3104043566179726  0.2141180681822021  0.2959804093773712  1.0000
  H   H32       1.0  0.09628133028542861  0.0818814790628508  0.7860525490776453  1.0000
  H   H33       1.0  0.014763807056851918  0.7041559608924571  0.918039229481721  1.0000
  H   H34       1.0  0.6895949373297936  0.7858821553492772  0.7040223450938897  1.0000
  H   H35       1.0  0.9037162877022951  0.9181153864606486  0.21394909723693453  1.0000
  H   H36       1.0  0.9852358116275894  0.29584493380626503  0.08196214592979358  1.0000
  H   H37       1.0  0.5581259419998119  0.326555313124075  0.37807861908056856  1.0000
  H   H38       1.0  0.23158170830344454  0.0516792972537559  0.6736646241796578  1.0000
  H   H39       1.0  0.18014642855106194  0.6219334249769162  0.9482501207188675  1.0000
  H   H40       1.0  0.44187438065657136  0.6734428950297369  0.621921056924613  1.0000
  H   H41       1.0  0.7684168921184592  0.948321597684867  0.32633778651528206  1.0000
  H   H42       1.0  0.8198484078651233  0.3780661258649047  0.0517490071396409  1.0000
  H   H43       1.0  0.4255061445570547  0.3712507103066968  0.41932635359394516  1.0000
  H   H44       1.0  0.05424065126430119  0.0481775322493903  0.6289486767786059  1.0000
  H   H45       1.0  0.006208457904953994  0.5807338329886633  0.9516362739267451  1.0000
  H   H46       1.0  0.5744958794416419  0.6287488413378385  0.5806746740867937  1.0000
  H   H47       1.0  0.9457569525432844  0.9518213482567504  0.3710544410432492  1.0000
  H   H48       1.0  0.9937880902996309  0.4192650462061137  0.048362162424666635  1.0000
  H   H49       1.0  0.5943130761494118  0.48267447902073  0.4010881411750944  1.0000
  H   H50       1.0  0.1117526395065698  0.9186105021619754  0.5173966491515573  1.0000
  H   H51       1.0  0.19313663227973876  0.5986896716998016  0.08126234976986525  1.0000
  H   H52       1.0  0.4056855421866672  0.5173244010903844  0.5989133696879492  1.0000
  H   H53       1.0  0.8882462856520091  0.08139106394389022  0.482604382483636  1.0000
  H   H54       1.0  0.8068589081083954  0.401307192597109  0.9187350786823104  1.0000
  H   H55       1.0  0.5618140963054898  0.40244994216053703  0.287865861943125  1.0000
  H   H56       1.0  0.159458862202989  0.8855398849935483  0.5975206083644552  1.0000
  H   H57       1.0  0.2741131755493314  0.7118980417080324  0.11444367311781194  1.0000
  H   H58       1.0  0.43818723416734434  0.5975502808911416  0.7121348219612927  1.0000
  H   H59       1.0  0.8405421285969794  0.11445966627037761  0.4024791678981643  1.0000
  H   H60       1.0  0.7258895449532118  0.28809882308133444  0.8855545118058288  1.0000
  H   H61       1.0  0.3409036697049501  0.48157659945655945  0.3718744507541487  1.0000
  H   H62       1.0  0.8593465351489868  0.8902954664035433  0.5182917480206796  1.0000
  H   H63       1.0  0.9690464539771991  0.6280607264091954  0.10948702842589593  1.0000
  H   H64       1.0  0.6590983326455202  0.5184249668603584  0.6281269050831  1.0000
  H   H65       1.0  0.1406558106083935  0.10970677185625281  0.48171108713375327  1.0000
  H   H66       1.0  0.03095178810160356  0.37193949596604625  0.8905116162503078  1.0000
  H   H67       1.0  0.5944585155555018  0.5546656023254216  0.21511237309722026  1.0000
  H   H68       1.0  0.03991409777965782  0.6604298092813182  0.44515185430237386  1.0000
  H   H69       1.0  0.3795439549419228  0.78471463570294  0.33958639381693  1.0000
  H   H70       1.0  0.4055363313067772  0.4453319333786325  0.784884711578627  1.0000
  H   H71       1.0  0.9600875238234391  0.33957108354145754  0.5548423054638221  1.0000
  H   H72       1.0  0.6204532800764895  0.21528558737758624  0.6604150011688575  1.0000
  H   H73       1.0  0.5271971064897513  0.445450157407727  0.19483894867403975  1.0000
  H   H74       1.0  0.08202547136463788  0.7494728313998422  0.5543977236848576  1.0000
  H   H75       1.0  0.33278728908378247  0.8048787835258153  0.2505229301497281  1.0000
  H   H76       1.0  0.47279602858412767  0.5545480499433708  0.8051588275088976  1.0000
  H   H77       1.0  0.9179819649493764  0.2505273900572931  0.4455961768436438  1.0000
  H   H78       1.0  0.667207193479413  0.1951221105108942  0.7494767615742502  1.0000
  H   H79       1.0  0.5731243604004134  0.3990160996216758  0.9810861894464081  1.0000
  H   H80       1.0  0.1742882555724847  0.5821470273847352  0.6009456378131617  1.0000
  H   H81       1.0  0.5925391059547208  0.0186705465033228  0.41803365005674914  1.0000
  H   H82       1.0  0.4268749081650823  0.6009861384270605  0.01891632150596929  1.0000
  H   H83       1.0  0.8257130487620259  0.417853194581049  0.3990510443635529  1.0000
  H   H84       1.0  0.40746051646376474  0.9813303483505252  0.5819682970301515  1.0000
  H   H85       1.0  0.6396484647477294  0.46167956396017457  0.10113408824732063  1.0000
  H   H86       1.0  0.17812504391383047  0.6392798725088866  0.5381052041512646  1.0000
  H   H87       1.0  0.5389922355626596  0.8986823985742092  0.36079302287282655  1.0000
  H   H88       1.0  0.3603514644932559  0.5383240168884244  0.8988673796117227  1.0000
  H   H89       1.0  0.8218793309005363  0.3607223649608499  0.4618944170855529  1.0000
  H   H90       1.0  0.4610111389033448  0.10131782430791958  0.6392067338155201  1.0000
  H   H91       1.0  0.2382626177353799  0.45957663216939426  0.9690197241842142  1.0000
  H   H92       1.0  0.7788906565651244  0.5097332295902958  0.540531190193441  1.0000
  H   H93       1.0  0.269254704026352  0.0309539957237774  0.4900091129487336  1.0000
  H   H94       1.0  0.761734270142071  0.5404229188131283  0.03097961980899571  1.0000
  H   H95       1.0  0.2211147253096328  0.4902690071741559  0.45946568073379973  1.0000
  H   H96       1.0  0.7307452789571656  0.9690435406422822  0.5099896554146498  1.0000
  H   H97       1.0  0.3322432631463243  0.3945606816807582  0.9008571999647046  1.0000
  H   H98       1.0  0.9379607708239985  0.5066272255168229  0.6055331165403501  1.0000
  H   H99       1.0  0.4316398550216433  0.09897306715748042  0.49324712183450004  1.0000
  H   H100      1.0  0.667757352152428  0.6054422274504461  0.09914346831988756  1.0000
  H   H101      1.0  0.06204461851885413  0.49337501155788743  0.3944648977376631  1.0000
  H   H102      1.0  0.5683625295420854  0.9010231259992666  0.5067507271227216  1.0000
  C   C1        1.0  0.2592261033051386  0.3729418407660248  0.2341435773439145  1.0000
  C   C2        1.0  0.8862557711740919  0.8611984525965397  0.6268903965242175  1.0000
  C   C3        1.0  0.02541283658799653  0.7657780760043807  0.13869385491925365  1.0000
  C   C4        1.0  0.7407721611779507  0.6270583825399781  0.7658584973846061  1.0000
  C   C5        1.0  0.11374524127410267  0.13879908399500343  0.3731090515818991  1.0000
  C   C6        1.0  0.974588490150793  0.23422214689217208  0.8613062573097778  1.0000
  C   C7        1.0  0.2147337037596344  0.2961916679101293  0.25352756398202564  1.0000
  C   C8        1.0  0.9185466141780481  0.957321635969727  0.7037938931294648  1.0000
  C   C9        1.0  0.9614943795306915  0.746478347856801  0.04255912945738075  1.0000
  C   C10       1.0  0.7852655901881319  0.7038085556213503  0.7464751904892354  1.0000
  C   C11       1.0  0.0814523505429321  0.0426759006362403  0.2962059105173367  1.0000
  C   C12       1.0  0.03850661500332115  0.2535212035622578  0.9574412184806248  1.0000
  C   C13       1.0  0.3439889792984303  0.2673565113874403  0.27999081466142434  1.0000
  C   C14       1.0  0.07664527217717419  0.012666617935430202  0.7327577904226814  1.0000
  C   C15       1.0  0.06429614480929065  0.7200637208579651  0.9872615693874638  1.0000
  C   C16       1.0  0.6560099749764703  0.7326430403562937  0.7200110321680315  1.0000
  C   C17       1.0  0.9233543644214421  0.9873322619357836  0.2672426851569442  1.0000
  C   C18       1.0  0.9357031342022849  0.2799365020530118  0.012738898382245628  1.0000
  C   C19       1.0  0.4645132906238985  0.3472594181712624  0.36051743755598414  1.0000
  C   C20       1.0  0.11725145405306137  0.013367816204315399  0.652902686785879  1.0000
  C   C21       1.0  0.10409474683059033  0.6394924876879956  0.9865278010708708  1.0000
  C   C22       1.0  0.5354870395005805  0.6527387902928085  0.6394833817999698  1.0000
  C   C23       1.0  0.8827474964877877  0.986631735384286  0.3470985883681978  1.0000
  C   C24       1.0  0.8959004143222769  0.36050773432106803  0.013469947727891531  1.0000
  C   C25       1.0  0.5116300694100174  0.42424022711690407  0.34185981096479173  1.0000
  C   C26       1.0  0.08743581530559663  0.9177422952900045  0.5757745794818379  1.0000
  C   C27       1.0  0.16981363484584486  0.6579714834813899  0.08216565987694936  1.0000
  C   C28       1.0  0.4883702428002793  0.575759996174675  0.6581419082230441  1.0000
  C   C29       1.0  0.9125648291094705  0.0822585994790686  0.424226903997031  1.0000
  C   C30       1.0  0.8301846326152285  0.34202672437659487  0.9178332283181446  1.0000
  C   C31       1.0  0.38144468953871064  0.4514916006497032  0.31435444826578873  1.0000
  C   C32       1.0  0.9299940211941475  0.8628839309122183  0.5483854672940538  1.0000
  C   C33       1.0  0.06721481829966797  0.6855216044387832  0.1369816086477088  1.0000
  C   C34       1.0  0.6185566446681746  0.5485086225571009  0.6856468073140222  1.0000
  C   C35       1.0  0.07000764148345702  0.137116963616954  0.45161498090138963  1.0000
  C   C36       1.0  0.9327861725003074  0.3144779468251429  0.8630181676149108  1.0000
  C   C37       1.0  0.49466838554288023  0.503701945822705  0.19995012104647011  1.0000
  C   C38       1.0  0.9911636134291155  0.6962795292008365  0.496153544646873  1.0000
  C   C39       1.0  0.2950024071661873  0.7998323848365985  0.30366457796344554  1.0000
  C   C40       1.0  0.5053292033285217  0.49629693406292563  0.8000507100738404  1.0000
  C   C41       1.0  0.008839048840798168  0.3037213643127927  0.5038430098882216  1.0000
  C   C42       1.0  0.7049968860255261  0.20016582309173706  0.6963344182989957  1.0000
  C   C43       1.0  0.3839726556327179  0.48035312259050034  0.1130247993494464  1.0000
  C   C44       1.0  0.9038630094557191  0.6327786514002154  0.5195493529096638  1.0000
  C   C45       1.0  0.27121368804667173  0.8867698952923035  0.36714377038811125  1.0000
  C   C46       1.0  0.6160317520320077  0.5196471006722305  0.8869762087570267  1.0000
  C   C47       1.0  0.09614854845104763  0.36722157111395853  0.48044783826518517  1.0000
  C   C48       1.0  0.7287763810374556  0.1132283123131259  0.6328553966189361  1.0000
  C   C49       1.0  0.5787992012743503  0.4603890446439465  0.041340634369262844  1.0000
  C   C50       1.0  0.11849476902416002  0.5809073041552821  0.539520247564127  1.0000
  C   C51       1.0  0.5377304109810551  0.958503123891205  0.419173516616489  1.0000
  C   C52       1.0  0.4211986944195588  0.5396125212364423  0.9586597175231902  1.0000
  C   C53       1.0  0.8815058455185394  0.4190935893727782  0.4604766625116454  1.0000
  C   C54       1.0  0.46227230280945236  0.041495756191054105  0.5808272831651919  1.0000
  C   C55       1.0  0.34460253778177463  0.4570714683051874  0.9618848284237986  1.0000
  C   C56       1.0  0.887678706154631  0.5050388956898288  0.5429859324562117  1.0000
  C   C57       1.0  0.3827822610699556  0.038061256848323  0.49483232527279597  1.0000
  C   C58       1.0  0.6553991069816547  0.5429314410515006  0.03811651960353413  1.0000
  C   C59       1.0  0.11232668692226624  0.49496334154000016  0.4570126534971878  1.0000
  C   C60       1.0  0.6172170507919859  0.961936951855641  0.505169529366576  1.0000
  S   S1        1.0  0.4317265949701579  0.5474441075604659  0.29654896720317947  1.0000
  S   S2        1.0  0.8844583122088068  0.7491254159994226  0.45239525080729964  1.0000
  S   S3        1.0  0.13535724765144871  0.7032633640917325  0.25072965461315994  1.0000
  S   S4        1.0  0.5682720129198414  0.4525567876884153  0.7034545868425327  1.0000
  S   S5        1.0  0.1155433250865272  0.25087749304700674  0.5476049538692606  1.0000
  S   S6        1.0  0.8646413594824903  0.2967355155539977  0.7492701412237253  1.0000
  N   N1        1.0  0.4306793586816724  0.4586571234196128  0.04073016139672347  1.0000
  N   N2        1.0  0.9721756292186966  0.5821755437747742  0.5412679687895265  1.0000
  N   N3        1.0  0.3901497783926829  0.959118663589301  0.41774086588749554  1.0000
  N   N4        1.0  0.5693171686307466  0.541345786050691  0.9592723613200108  1.0000
  N   N5        1.0  0.0278246456511369  0.41782467796553396  0.458728033644448  1.0000
  N   N6        1.0  0.6098474924540794  0.0408775298362016  0.5822587294345141  1.0000
  N   N7        1.0  0.3752859107293958  0.7434843762436145  0.48470881105521363  1.0000
  N   N8        1.0  0.6318974343323447  0.7412227572392496  0.25640743049919495  1.0000
  N   N9        1.0  0.8904013914617505  0.5151443491179319  0.2588176782336973  1.0000
  N   N10       1.0  0.6247143760986302  0.25651786156522144  0.5152926646137388  1.0000
  N   N11       1.0  0.36810660454320027  0.2587788085978673  0.7435918547712035  1.0000
  N   N12       1.0  0.10959584653464562  0.4848538585145689  0.7411805302186565  1.0000
  O   O1        1.0  0.25701531212882867  0.4813305181927987  0.1081867129802562  1.0000
  O   O2        1.0  0.7759633269900374  0.6270740253289304  0.5186348818277723  1.0000
  O   O3        1.0  0.14903359439774294  0.8916042331048715  0.37282328865416775  1.0000
  O   O4        1.0  0.742969617856069  0.5186697041986363  0.8918139568726957  1.0000
  O   O5        1.0  0.2240393248337895  0.37292888332247287  0.4813637158899838  1.0000
  O   O6        1.0  0.8509752483942703  0.10839666191675691  0.6271779160127409  1.0000
  O   O7        1.0  0.5141328079764874  0.771159009326986  0.5073847205073676  1.0000
  O   O8        1.0  0.7428955927292974  0.7360831411970422  0.22859283987013168  1.0000
  O   O9        1.0  0.006639980767488458  0.49255508203452786  0.2639499672823149  1.0000
  O   O10       1.0  0.4858713130480794  0.2288425599229171  0.49262714162153304  1.0000
  O   O11       1.0  0.2571060475440277  0.26391775240136883  0.7714041782730021  1.0000
  O   O12       1.0  0.993352163648062  0.5074370799880511  0.7360421429606774  1.0000
  O   O13       1.0  0.3080682514064961  0.8002968540318419  0.5015395677225029  1.0000
  O   O14       1.0  0.5077063798126389  0.7011417357531045  0.1997089880866057  1.0000
  O   O15       1.0  0.8062674685199835  0.498321301247131  0.29876076254299744  1.0000
  O   O16       1.0  0.6919333597505143  0.19970605392870056  0.4984566352263542  1.0000
  O   O17       1.0  0.4922959547426017  0.29886050204130743  0.8002921320416619  1.0000
  O   O18       1.0  0.1937324823692279  0.5016802649290852  0.701240377159543  1.0000
  O   O19       1.0  0.30891122573008545  0.6601224084223816  0.4456565034818142  1.0000
  O   O20       1.0  0.649197798417667  0.7857797864331388  0.3398028529640131  1.0000
  O   O21       1.0  0.8630805106136347  0.5540952928232983  0.21441395821842954  1.0000
  O   O22       1.0  0.6910876807582581  0.3398791569078554  0.5543416697764485  1.0000
  O   O23       1.0  0.35081034711444653  0.21422177984050708  0.6601974362511882  1.0000
  O   O24       1.0  0.13691910433676213  0.44590560172029825  0.7855868455176989  1.0000
