data_image0
_chemical_formula_structural       Cd4H8C16S24N16
_chemical_formula_sum              "Cd4 H8 C16 S24 N16"
_cell_length_a       8.004920957113768
_cell_length_b       10.72621229629243
_cell_length_c       13.203158261282114
_cell_angle_alpha    89.99935969377691
_cell_angle_beta     89.9995773200392
_cell_angle_gamma    90.00048350507167

_space_group_name_H-M_alt    "P 1"
_space_group_IT_number       1

loop_
  _space_group_symop_operation_xyz
  'x, y, z'

loop_
  _atom_site_type_symbol
  _atom_site_label
  _atom_site_symmetry_multiplicity
  _atom_site_fract_x
  _atom_site_fract_y
  _atom_site_fract_z
  _atom_site_occupancy
  Cd  Cd1       1.0  0.7500171678851473  0.6434383970896816  0.4999991487294153  1.0000
  Cd  Cd2       1.0  0.2500103033128979  0.8565612286882711  5.2856791726e-06  1.0000
  Cd  Cd3       1.0  0.2499804619824602  0.356558454509063  0.4999917765679456  1.0000
  Cd  Cd4       1.0  0.7499995546062834  0.14342460392990117  3.685399832399999e-06  1.0000
  H   H1        1.0  0.5266577276925941  0.8430919400551602  0.1788293576853022  1.0000
  H   H2        1.0  0.026663271453592995  0.6569157453590719  0.32117836457897647  1.0000
  H   H3        1.0  0.973370351131308  0.8431056843366492  0.8211791970753382  1.0000
  H   H4        1.0  0.47336510547074784  0.6568913069294594  0.6788220811597369  1.0000
  H   H5        1.0  0.4733386528206509  0.15689465622307344  0.8211714137917383  1.0000
  H   H6        1.0  0.9733406045179649  0.34309136137655827  0.6788322529144748  1.0000
  H   H7        1.0  0.026642269489030895  0.15690515161098514  0.17883066298630718  1.0000
  H   H8        1.0  0.5266575090362267  0.3430980864363846  0.3211597553810748  1.0000
  C   C1        1.0  0.7085563690033254  0.6008852857421089  0.2555798913751275  1.0000
  C   C2        1.0  0.20857709204963729  0.8991458035758199  0.2444368496817475  1.0000
  C   C3        1.0  0.7914649442276059  0.6008906381736523  0.7444271340638196  1.0000
  C   C4        1.0  0.2914605492070592  0.8991258348013031  0.75556361038403  1.0000
  C   C5        1.0  0.291451254734632  0.39913114397484145  0.7444284538827262  1.0000
  C   C6        1.0  0.7914317808553051  0.1008631677599752  0.7555745251861907  1.0000
  C   C7        1.0  0.2085464273610924  0.3991239271504056  0.2555531875961563  1.0000
  C   C8        1.0  0.7085445761417617  0.10087847523374899  0.24441974091611474  1.0000
  C   C9        1.0  0.5748700241634594  0.6792705646846355  0.09963759566203119  1.0000
  C   C10       1.0  0.07488290779651409  0.8207364611373222  0.4003714221299646  1.0000
  C   C11       1.0  0.9251447703506201  0.6792876373155962  0.9003808174243841  1.0000
  C   C12       1.0  0.4251350180306729  0.8207081488896362  0.5996184079510911  1.0000
  C   C13       1.0  0.4251213592851357  0.3207076408231728  0.9003775663617618  1.0000
  C   C14       1.0  0.9250959836243239  0.17927996850851707  0.5996354084041329  1.0000
  C   C15       1.0  0.0748603549676403  0.320724130997661  0.0996154095482069  1.0000
  C   C16       1.0  0.5748551164399558  0.17927658292181547  0.400361156501674  1.0000
  S   S1        1.0  0.8123626820229218  0.5117416851156803  0.3437862391202628  1.0000
  S   S2        1.0  0.312364334143865  0.988266684033377  0.15620958036900837  1.0000
  S   S3        1.0  0.6876800066701988  0.511744834645917  0.6562170728162896  1.0000
  S   S4        1.0  0.1876819129929217  0.98825613449047  0.8437908063364219  1.0000
  S   S5        1.0  0.1876649294960728  0.4882672864303003  0.6562016564742735  1.0000
  S   S6        1.0  0.6876532833143686  0.011729235204647599  0.8437995223562494  1.0000
  S   S7        1.0  0.31233886016307366  0.48826320451386346  0.3437806689315224  1.0000
  S   S8        1.0  0.812333205905979  0.011725800297085698  0.15621981124877493  1.0000
  S   S9        1.0  0.6697256017799234  0.5403194060783107  0.1344986261309273  1.0000
  S   S10       1.0  0.1697406337559926  0.9596918853565697  0.3655228359831924  1.0000
  S   S11       1.0  0.8302674736728121  0.5403308151226013  0.8655218395828398  1.0000
  S   S12       1.0  0.3302840202197075  0.9596588406993047  0.6344853911659101  1.0000
  S   S13       1.0  0.3302870187463256  0.4596690548268185  0.8655036600895798  1.0000
  S   S14       1.0  0.8302357592256299  0.040325476598035  0.6344809649740739  1.0000
  S   S15       1.0  0.16972391007293197  0.45967908854548506  0.1344766596133056  1.0000
  S   S16       1.0  0.6697086125245872  0.04031656801664949  0.3655161377663346  1.0000
  S   S17       1.0  0.503713709292839  0.7106091669264529  0.9817114129718192  1.0000
  S   S18       1.0  0.0037170321563024995  0.7894075430106328  0.5182965453053895  1.0000
  S   S19       1.0  0.9962764911105494  0.7106291295048804  0.0183021636842042  1.0000
  S   S20       1.0  0.49626802320332075  0.7893746859976148  0.48170418041050306  1.0000
  S   S21       1.0  0.49626268349072683  0.28937276782257726  0.018288601177850698  1.0000
  S   S22       1.0  0.9962293793515541  0.21061820955463156  0.4817019539191563  1.0000
  S   S23       1.0  0.0036949048395271992  0.289374247982053  0.9817046669277686  1.0000
  S   S24       1.0  0.5036946281524736  0.21061843631493815  0.518287502378314  1.0000
  N   N1        1.0  0.5773447354251786  0.7545249254109476  0.18076555564749697  1.0000
  N   N2        1.0  0.0773551535749277  0.745483046701821  0.3192426934972871  1.0000
  N   N3        1.0  0.922668498197538  0.7545225598366088  0.8192468543290091  1.0000
  N   N4        1.0  0.4226618346855772  0.7454760092326537  0.6807561692601424  1.0000
  N   N5        1.0  0.42265164517716153  0.2454737907246596  0.8192329435894335  1.0000
  N   N6        1.0  0.9226462239354589  0.2545221954508533  0.6807656518269026  1.0000
  N   N7        1.0  0.0773391254752482  0.24548268233880316  0.180760733586439  1.0000
  N   N8        1.0  0.577343290628974  0.2545264361859409  0.3192309690213975  1.0000
  N   N9        1.0  0.6500779755486475  0.714696881397117  0.26796516686591326  1.0000
  N   N10       1.0  0.15008618557793338  0.7853152313071373  0.2320382071394249  1.0000
  N   N11       1.0  0.8499322634084194  0.7146990011906522  0.7320438273590638  1.0000
  N   N12       1.0  0.3499537850592063  0.7852963596392114  0.7679640713197459  1.0000
  N   N13       1.0  0.34994588814970473  0.28529624108347207  0.7320272731782609  1.0000
  N   N14       1.0  0.8499226872754305  0.21468255250233167  0.7679701382024857  1.0000
  N   N15       1.0  0.1500478771110991  0.2852931887946824  0.26795997370700053  1.0000
  N   N16       1.0  0.6500825709400004  0.21469583057101718  0.23202988348945297  1.0000
