data_image0
_chemical_formula_structural       Na4H24C20S4O26
_chemical_formula_sum              "Na4 H24 C20 S4 O26"
_cell_length_a       6.499975509650884
_cell_length_b       11.027285570752849
_cell_length_c       12.564403819637736
_cell_angle_alpha    109.71335811538508
_cell_angle_beta     104.97229987100044
_cell_angle_gamma    89.98705601446116

_space_group_name_H-M_alt    "P 1"
_space_group_IT_number       1

loop_
  _space_group_symop_operation_xyz
  'x, y, z'

loop_
  _atom_site_type_symbol
  _atom_site_label
  _atom_site_symmetry_multiplicity
  _atom_site_fract_x
  _atom_site_fract_y
  _atom_site_fract_z
  _atom_site_occupancy
  Na  Na1       1.0  0.2204337701651582  0.41373192050025404  0.9715236465481212  1.0000
  Na  Na2       1.0  0.24904200899637627  0.08631439402735448  0.028461417682535697  1.0000
  Na  Na3       1.0  0.7795604722842671  0.5862724403163566  0.028473756042721697  1.0000
  Na  Na4       1.0  0.7509567302444894  0.9136880583966798  0.9715392078052145  1.0000
  H   H1        1.0  0.22954570544660413  0.6435574179590874  0.16529715679225632  1.0000
  H   H2        1.0  0.06470099821169131  0.8564239863339579  0.8347948994331202  1.0000
  H   H3        1.0  0.770451898070391  0.35644794201012786  0.8347049614147151  1.0000
  H   H4        1.0  0.9352948818241203  0.1435804275955874  0.16520989865230723  1.0000
  H   H5        1.0  0.16499535192519943  0.5410096353842846  0.2152619249233823  1.0000
  H   H6        1.0  0.950185982628618  0.9589796446946435  0.7848048614400865  1.0000
  H   H7        1.0  0.8349984434772113  0.4589918280529234  0.7847353702222646  1.0000
  H   H8        1.0  0.049814821312743604  0.04102573521127789  0.21520007398066804  1.0000
  H   H9        1.0  0.8985234379438723  0.21747145570888898  0.9321684585196336  1.0000
  H   H10       1.0  0.9659868970700672  0.2825220204788508  0.06771257095881104  1.0000
  H   H11       1.0  0.10147862748197407  0.7825319555994737  0.06783129482239764  1.0000
  H   H12       1.0  0.03401213355783739  0.7174823558612997  0.9322870618234731  1.0000
  H   H13       1.0  0.3155781459126104  0.3189828571572875  0.7189774889473668  1.0000
  H   H14       1.0  0.5966077101778069  0.18086744313355743  0.28096140163125227  1.0000
  H   H15       1.0  0.6844214177321818  0.6810147407949926  0.2810194435198453  1.0000
  H   H16       1.0  0.40339902763235364  0.8191350562559379  0.7190458677651178  1.0000
  H   H17       1.0  0.24848513646406903  0.21668350038317635  0.47969927805674917  1.0000
  H   H18       1.0  0.769239685053087  0.28319530460520775  0.5201158357607837  1.0000
  H   H19       1.0  0.7515206374868911  0.7833131237109753  0.5202966009255333  1.0000
  H   H20       1.0  0.23076168678773715  0.7168033371811119  0.4798919871067539  1.0000
  H   H21       1.0  0.22105740730458487  0.33023472981741975  0.31104704785340687  1.0000
  H   H22       1.0  0.9101224800629666  0.16986657039267067  0.6887585872336003  1.0000
  H   H23       1.0  0.7789355849568838  0.669751268846312  0.6889480228932854  1.0000
  H   H24       1.0  0.08988666990523343  0.8301310701119108  0.3112444021198897  1.0000
  C   C1        1.0  0.31248857208270664  0.5028449078594476  0.6869995944248615  1.0000
  C   C2        1.0  0.6251047176256537  0.9970320918184327  0.3130120939603386  1.0000
  C   C3        1.0  0.6875020478114778  0.49715656440409345  0.31299887476546917  1.0000
  C   C4        1.0  0.3749061707734143  0.002966511983643701  0.686990610269774  1.0000
  C   C5        1.0  0.25812455090791536  0.42208043933642597  0.4955084464993503  1.0000
  C   C6        1.0  0.7623669504069994  0.07785022102127928  0.5044452616659497  1.0000
  C   C7        1.0  0.7418793289522086  0.5779142479969365  0.5044866174556546  1.0000
  C   C8        1.0  0.2376374263323981  0.9221474212175946  0.49555789225117036  1.0000
  C   C9        1.0  0.2674914210266053  0.3185168894260287  0.5345929937786734  1.0000
  C   C10       1.0  0.732969146121434  0.18136828254425547  0.465294525392494  1.0000
  C   C11       1.0  0.7325119307998662  0.6814845820478223  0.46540556874309386  1.0000
  C   C12       1.0  0.26703508492445144  0.8186283977365534  0.5347091248773594  1.0000
  C   C13       1.0  0.3017982845009541  0.37077611004932015  0.6582133755465094  1.0000
  C   C14       1.0  0.6435890268981908  0.12908956528339388  0.3417085099051532  1.0000
  C   C15       1.0  0.698195063854442  0.6292224560084846  0.34178381215394876  1.0000
  C   C16       1.0  0.3564173995920256  0.8709109871795416  0.6582965591898995  1.0000
  C   C17       1.0  0.22902651528719536  0.425855542027506  0.37966798875397967  1.0000
  C   C18       1.0  0.8493217563229721  0.0741863814747177  0.6203011313720808  1.0000
  C   C19       1.0  0.7709702452230401  0.5741343071473535  0.6203255190404987  1.0000
  C   C20       1.0  0.15068392674995582  0.9258093439400739  0.3797040247315522  1.0000
  S   S1        1.0  0.35835547488729713  0.6298848937890752  0.824162197613681  1.0000
  S   S2        1.0  0.5336684302154283  0.8700649552037872  0.17585319183623224  1.0000
  S   S3        1.0  0.6416358187340593  0.37011075629204976  0.17583227665715379  1.0000
  S   S4        1.0  0.4663355442509386  0.12994041012318994  0.8241497712881551  1.0000
  O   O1        1.0  0.15947210860305458  0.6945700922776578  0.8171027302983588  1.0000
  O   O2        1.0  0.34186627981495826  0.8054928454924803  0.18299964301871083  1.0000
  O   O3        1.0  0.8405213505632788  0.3054293954699361  0.18288837328751834  1.0000
  O   O4        1.0  0.6581344992102701  0.19451250565039396  0.8170013011435839  1.0000
  O   O5        1.0  0.39779659760699815  0.5641317129114255  0.910123119137026  1.0000
  O   O6        1.0  0.4871142794060646  0.9358228364694269  0.0898952109558877  1.0000
  O   O7        1.0  0.6021860386675686  0.43586972964448006  0.08987110089976368  1.0000
  O   O8        1.0  0.5128955429592426  0.06418932410839769  0.9101128939043688  1.0000
  O   O9        1.0  0.541874064340469  0.7125226240824601  0.8327116660770527  1.0000
  O   O10       1.0  0.7086261755337234  0.7873759560651192  0.16724273202306242  1.0000
  O   O11       1.0  0.45811752565116143  0.28747495566739895  0.16728261374000647  1.0000
  O   O12       1.0  0.2913739908180589  0.21262551272984345  0.8327554080400006  1.0000
  O   O13       1.0  0.13634438410834798  0.5637950710835964  0.14317811465348737  1.0000
  O   O14       1.0  0.9936471298696502  0.9362360812852158  0.8569058081975383  1.0000
  O   O15       1.0  0.8636504710145305  0.4362131720809188  0.8568220920365873  1.0000
  O   O16       1.0  0.0063485994894137  0.0637673649336534  0.1430986879889318  1.0000
  O   O17       1.0  0.025905138113820697  0.25008196955580075  0.9999776543428424  1.0000
  O   O18       1.0  0.9740967866017345  0.7499204855471078  2.3393603612526442e-05  1.0000
  O   O19       1.0  0.28495891537289714  0.5369914668134186  0.5899418999726577  1.0000
  O   O20       1.0  0.694493203483809  0.9629097532953989  0.4100783455887366  1.0000
  O   O21       1.0  0.7150401812919754  0.4630032107490151  0.41005173204259643  1.0000
  O   O22       1.0  0.30551275602648087  0.03708787877769739  0.5899234230543584  1.0000
  O   O23       1.0  0.21526773942131427  0.5264012886272127  0.35532127306466066  1.0000
  O   O24       1.0  0.8601149821394501  0.9737035786309672  0.6447423928683804  1.0000
  O   O25       1.0  0.7847126068026712  0.47358560375296577  0.6446636289775468  1.0000
  O   O26       1.0  0.1398898416469692  0.02629696098730959  0.3552608684939358  1.0000
