data_image0
_chemical_formula_structural       Zn8H12C64O38
_chemical_formula_sum              "Zn8 H12 C64 O38"
_cell_length_a       19.663825834868327
_cell_length_b       19.662356228500972
_cell_length_c       22.884133247231244
_cell_angle_alpha    64.5852373438689
_cell_angle_beta     64.51467473433372
_cell_angle_gamma    89.98884686950797

_space_group_name_H-M_alt    "P 1"
_space_group_IT_number       1

loop_
  _space_group_symop_operation_xyz
  'x, y, z'

loop_
  _atom_site_type_symbol
  _atom_site_label
  _atom_site_symmetry_multiplicity
  _atom_site_fract_x
  _atom_site_fract_y
  _atom_site_fract_z
  _atom_site_occupancy
  Zn  Zn1       1.0  0.7186393746780125  0.13679190714320563  0.5626165206873351  1.0000
  Zn  Zn2       1.0  0.13666671808675088  0.7188842365403834  0.5623194706492354  1.0000
  Zn  Zn3       1.0  0.7188218548936617  0.3010492731460704  0.5623345529006868  1.0000
  Zn  Zn4       1.0  0.28117725477709127  0.6989508136561257  0.43766542148772186  1.0000
  Zn  Zn5       1.0  0.8633323561684919  0.281112630464996  0.4376814074829555  1.0000
  Zn  Zn6       1.0  0.2813628151192659  0.8632077160721537  0.4373827598766339  1.0000
  Zn  Zn7       1.0  0.6994168568642821  0.2812601043876129  0.43732936761740143  1.0000
  Zn  Zn8       1.0  0.3005822899455737  0.7187418912561939  0.5626710121831805  1.0000
  H   H1        1.0  0.34918298405289516  0.08570829651348084  0.9993979143527909  1.0000
  H   H2        1.0  0.649437564739806  0.08921012411058661  0.9993188912068686  1.0000
  H   H3        1.0  0.911522848566527  0.351227393444582  0.9992896709131356  1.0000
  H   H4        1.0  0.08848033690823336  0.6487725254853488  0.0007098919457745144  1.0000
  H   H5        1.0  0.35056098111382283  0.910790191256396  0.0006808551046473551  1.0000
  H   H6        1.0  0.49823430160343923  0.1740884203235141  0.999448721509303  1.0000
  H   H7        1.0  0.5017687513400162  0.8259126884356149  0.0005502311054498063  1.0000
  H   H8        1.0  0.1735218113954531  0.4976992843095118  0.0005366510824841751  1.0000
  H   H9        1.0  0.6508162541274558  0.9142936593550104  0.0005996155825441655  1.0000
  H   H10       1.0  0.8264785927073106  0.5023032493008728  0.9994626131894505  1.0000
  H   H11       1.0  0.08515717886045591  0.348613830677131  0.0005598226877480856  1.0000
  H   H12       1.0  0.9148405409860914  0.6513869079876929  0.9994406569851503  1.0000
  C   C1        1.0  0.8498205380980721  0.34911978869154586  0.3017457680903489  1.0000
  C   C2        1.0  0.4860968148439755  0.05165309583036769  0.026186174880066852  1.0000
  C   C3        1.0  0.1105833531259179  0.6111951364641046  0.7774592474870797  1.0000
  C   C4        1.0  0.6112900993706489  0.11193377876977466  0.7774199595849254  1.0000
  C   C5        1.0  0.38870718689195644  0.8880677465709184  0.22257915671396206  1.0000
  C   C6        1.0  0.8894147980064562  0.38880656346513837  0.22254085001855356  1.0000
  C   C7        1.0  0.4040825993117494  0.09104113592243862  0.9516869922747587  1.0000
  C   C8        1.0  0.5959183297454517  0.9089605712367685  0.04831078550593995  1.0000
  C   C9        1.0  0.042763664361594116  0.35578479865994694  0.048277564939148435  1.0000
  C   C10       1.0  0.957235745787273  0.6442161282806611  0.9517227261937932  1.0000
  C   C11       1.0  0.9221422835368999  0.4876574918652921  0.026224090098011646  1.0000
  C   C12       1.0  0.3573300364090811  0.9061772039887119  0.048354856774629695  1.0000
  C   C13       1.0  0.6426689413049049  0.0938236356576215  0.9516449437549424  1.0000
  C   C14       1.0  0.9545454663394466  0.40569578202963213  0.951634458569785  1.0000
  C   C15       1.0  0.045454075191656826  0.5943048290519214  0.04836557003667946  1.0000
  C   C16       1.0  0.0778579514699871  0.5123438857476189  0.9737745949029061  1.0000
  C   C17       1.0  0.47465705413472387  0.1142872472390906  0.04737914801497568  1.0000
  C   C18       1.0  0.5253412266563089  0.8857154477863038  0.9526193778082186  1.0000
  C   C19       1.0  0.16169943800881004  0.5221121032805558  0.9525743312375566  1.0000
  C   C20       1.0  0.8383005342335962  0.4778899060504854  0.047424878816322326  1.0000
  C   C21       1.0  0.513902988877085  0.9483473205181246  0.9738128922881157  1.0000
  C   C22       1.0  0.5389204235114562  0.03846100119625381  0.922248210708531  1.0000
  C   C23       1.0  0.46107924940189804  0.961539294026224  0.07775155537145645  1.0000
  C   C24       1.0  0.9607538072495675  0.4611801742365386  0.07773277111525079  1.0000
  C   C25       1.0  0.15017718059941396  0.6508818239434222  0.698253838811908  1.0000
  C   C26       1.0  0.03924517103894228  0.5388202284247188  0.9222674657996349  1.0000
  C   C27       1.0  0.577896628522737  0.07815786706471095  0.8442487544264023  1.0000
  C   C28       1.0  0.4221030449651409  0.9218419911727056  0.15575144803889865  1.0000
  C   C29       1.0  0.9224927193244453  0.4222185302892498  0.15571209187574916  1.0000
  C   C30       1.0  0.07750712211024077  0.5777833579157845  0.8442878170899276  1.0000
  C   C31       1.0  0.6508603133757731  0.1515856342198917  0.6982169793993975  1.0000
  C   C32       1.0  0.5682449489261501  0.4317617885792447  0.49984500276961785  1.0000
  C   C33       1.0  0.43175579566646866  0.5682413090858136  0.5001571655856266  1.0000
  C   C34       1.0  0.9316033112779962  0.06807747638496434  0.5001611813789423  1.0000
  C   C35       1.0  0.06839872709024052  0.9319166963893085  0.4998342956097232  1.0000
  C   C36       1.0  0.34913909677309357  0.8484152927207236  0.30178331173354417  1.0000
  C   C37       1.0  0.5242660843460811  0.4757323399536163  0.49994882828602266  1.0000
  C   C38       1.0  0.4757324072761476  0.5242699240302927  0.5000541733029135  1.0000
  C   C39       1.0  0.9756830961879289  0.02420892677974271  0.5000565973723852  1.0000
  C   C40       1.0  0.02432097067437406  0.9757877462652688  0.49993984961835025  1.0000
  C   C41       1.0  0.9318360510978397  0.43187018648460934  0.4998647736061626  1.0000
  C   C42       1.0  0.06816835223261108  0.5681301095105699  0.5001315227706512  1.0000
  C   C43       1.0  0.9757489789266528  0.47576702068266746  0.4999826835009954  1.0000
  C   C44       1.0  0.024255121053038068  0.5242346200994561  0.5000111142046817  1.0000
  C   C45       1.0  0.8797907742807638  0.11990555970123047  0.5002213276462016  1.0000
  C   C46       1.0  0.12021064488989452  0.8800916642248994  0.49977630377235716  1.0000
  C   C47       1.0  0.6201345272295883  0.38001550033045134  0.49979041449300604  1.0000
  C   C48       1.0  0.37986448704896963  0.6199876851425615  0.5002093550634186  1.0000
  C   C49       1.0  0.8800067049434406  0.3800094026438929  0.4999461824154706  1.0000
  C   C50       1.0  0.11999262920364374  0.6199890175687132  0.5000519887371623  1.0000
  C   C51       1.0  0.6200524524099577  0.12003342861887512  0.5000612302393178  1.0000
  C   C52       1.0  0.3799473507365717  0.8799674247146856  0.49993740054355124  1.0000
  C   C53       1.0  0.5681657912838461  0.06817788704058363  0.5001391554304817  1.0000
  C   C54       1.0  0.4318343117662665  0.9318242434164646  0.49985935571159945  1.0000
  C   C55       1.0  0.5242560017528105  0.024263773059225124  0.5000148062662219  1.0000
  C   C56       1.0  0.47574327529022054  0.9757387806956647  0.4999844382372416  1.0000
  C   C57       1.0  0.431363024644881  0.9538675655396248  0.02651541913678553  1.0000
  C   C58       1.0  0.5686365163116989  0.04613348252699728  0.9734841730843655  1.0000
  C   C59       1.0  0.9803981883768245  0.4578462113554594  0.973508712047895  1.0000
  C   C60       1.0  0.01960195411050588  0.5421560800029114  0.026491950047642335  1.0000
  C   C61       1.0  0.45711718027955334  0.04480660544800244  0.9734711618790826  1.0000
  C   C62       1.0  0.5428816649031277  0.9551954240275365  0.02652802840632501  1.0000
  C   C63       1.0  0.01834281165735519  0.43061872884187125  0.02649344859473497  1.0000
  C   C64       1.0  0.9816561666311545  0.5693816738193866  0.9735067883201507  1.0000
  O   O1        1.0  0.7499872573357819  0.2500304936541085  0.4999960986213665  1.0000
  O   O2        1.0  0.223882611815412  0.6662827815574632  0.6674233022758712  1.0000
  O   O3        1.0  0.6662758406129259  0.10875017103967398  0.6673531481713011  1.0000
  O   O4        1.0  0.3337265171311687  0.8912514821433037  0.33264583889303606  1.0000
  O   O5        1.0  0.9113012559480468  0.19156775305378904  0.45671457191736653  1.0000
  O   O6        1.0  0.08870228653434258  0.8084293094573383  0.5432837979499251  1.0000
  O   O7        1.0  0.6482678133527456  0.368001735662098  0.5433104310896083  1.0000
  O   O8        1.0  0.3517324610913591  0.6319998028521427  0.45669040486476564  1.0000
  O   O9        1.0  0.2500118523349713  0.7499695931480875  0.5000038757670423  1.0000
  O   O10       1.0  0.911465033201118  0.3515046720965814  0.4566971247700592  1.0000
  O   O11       1.0  0.08853321159986648  0.6484952401170647  0.5433018684116034  1.0000
  O   O12       1.0  0.8082708024716395  0.3681978208713517  0.5432639572916784  1.0000
  O   O13       1.0  0.1917329062339732  0.6318025825626069  0.45673280992003373  1.0000
  O   O14       1.0  0.6325334590559067  0.19166614032184287  0.4562049088989609  1.0000
  O   O15       1.0  0.36746707757815505  0.8083352034593433  0.5437949656171313  1.0000
  O   O16       1.0  0.6478883722306392  0.08868611640235724  0.5438554203182306  1.0000
  O   O17       1.0  0.35211147035311535  0.9113148978325328  0.4561453614180876  1.0000
  O   O18       1.0  0.8080625930956202  0.08857108370789746  0.5437462537567371  1.0000
  O   O19       1.0  0.19194029132650303  0.9114284320686822  0.4562525559723198  1.0000
  O   O20       1.0  0.6323457759407489  0.3518205755752106  0.4562517955549836  1.0000
  O   O21       1.0  0.3676521147252529  0.6481800081318737  0.543750572544887  1.0000
  O   O22       1.0  0.8925668293551255  0.33357332358720976  0.33265960956293117  1.0000
  O   O23       1.0  0.10743214950791469  0.666426642088979  0.6673410637372752  1.0000
  O   O24       1.0  0.6662946148073132  0.22525882151768442  0.6673396787698849  1.0000
  O   O25       1.0  0.333705226627373  0.7747430666873429  0.3326602301957988  1.0000
  O   O26       1.0  0.7761154085092486  0.3337187972457727  0.3325774941415672  1.0000
  O   O27       1.0  0.4175438000423953  0.1311978588701098  0.888362453826275  1.0000
  O   O28       1.0  0.5824575608751629  0.8688043725684481  0.11163537817247966  1.0000
  O   O29       1.0  0.01951638791693  0.3058826596208278  0.11160167512134214  1.0000
  O   O30       1.0  0.9804855768294939  0.6941190671691974  0.8883989722930749  1.0000
  O   O31       1.0  0.30762444885189677  0.8656697146814026  0.11170280570628667  1.0000
  O   O32       1.0  0.6923757873040516  0.13433078896137138  0.8882967520652726  1.0000
  O   O33       1.0  0.9773310562803983  0.4194404266913098  0.8882648061761885  1.0000
  O   O34       1.0  0.022667094277444656  0.5805617102230018  0.11173485494412456  1.0000
  O   O35       1.0  0.4428438997111784  0.10303575310321379  0.11061974033498964  1.0000
  O   O36       1.0  0.5571470549043837  0.8969672913539599  0.8893784388004986  1.0000
  O   O37       1.0  0.21372176049720792  0.553533859966521  0.8893545954626134  1.0000
  O   O38       1.0  0.7862782117451914  0.4464681493645203  0.11064461459126554  1.0000
