data_image0
_chemical_formula_structural       Mg3P4H24C14N2O18
_chemical_formula_sum              "Mg3 P4 H24 C14 N2 O18"
_cell_length_a       6.947006736731199
_cell_length_b       9.638944450352064
_cell_length_c       10.318122467315519
_cell_angle_alpha    78.64718202230425
_cell_angle_beta     86.7734987958115
_cell_angle_gamma    79.55108662306424

_space_group_name_H-M_alt    "P 1"
_space_group_IT_number       1

loop_
  _space_group_symop_operation_xyz
  'x, y, z'

loop_
  _atom_site_type_symbol
  _atom_site_label
  _atom_site_symmetry_multiplicity
  _atom_site_fract_x
  _atom_site_fract_y
  _atom_site_fract_z
  _atom_site_occupancy
  Mg  Mg1       1.0  0.4999994930202761  0.4999994199769304  6.485043754852203e-07  1.0000
  Mg  Mg2       1.0  0.2960472030399899  0.0501029672001678  0.0503747623407591  1.0000
  Mg  Mg3       1.0  0.703952953036108  0.9498964712994747  0.9496257700438661  1.0000
  P   P1        1.0  0.45929171449046197  0.7389174162876346  0.18376955269607717  1.0000
  P   P2        1.0  0.540708180633537  0.2610831001504152  0.8162317574435817  1.0000
  P   P3        1.0  0.14755579449066397  0.7877656041650313  0.9780903933771015  1.0000
  P   P4        1.0  0.8524440909738047  0.21223490880861112  0.02190994862775851  1.0000
  H   H1        1.0  0.364810203140749  0.4053530962816083  0.6183994959270578  1.0000
  H   H2        1.0  0.6351882338473659  0.5946474013667853  0.38159994172676903  1.0000
  H   H3        1.0  0.99167360847931  0.9649108202121968  0.15814570955005533  1.0000
  H   H4        1.0  0.008326276985158601  0.03508969276144569  0.8418546324548046  1.0000
  H   H5        1.0  0.19384095137070997  0.3468547829580189  0.07870908016325728  1.0000
  H   H6        1.0  0.806159214364918  0.6531446590060312  0.921292420356167  1.0000
  H   H7        1.0  0.36135956874701936  0.2960736984994555  0.1775922778288148  1.0000
  H   H8        1.0  0.6386408676002376  0.7039246689905952  0.8224094130703747  1.0000
  H   H9        1.0  0.5858845961996907  0.08172416244920563  0.1795360341024193  1.0000
  H   H10       1.0  0.41411555987640697  0.9182752760504374  0.8204644982822061  1.0000
  H   H11       1.0  0.45160477266399823  0.998028464250261  0.28176369795444595  1.0000
  H   H12       1.0  0.5483953834120996  0.001970974249388699  0.7182368344301793  1.0000
  H   H13       1.0  0.914030903625303  0.71468580745519  0.2222319465466782  1.0000
  H   H14       1.0  0.08596924279126485  0.2853136275800523  0.7777676177031408  1.0000
  H   H15       1.0  0.10727037418453021  0.569952256007646  0.20626785089135777  1.0000
  H   H16       1.0  0.8927297818915747  0.43004718249199675  0.7937326814932604  1.0000
  H   H17       1.0  0.30706914526483337  0.44640109111845316  0.3911137661726939  1.0000
  H   H18       1.0  0.6929298232870096  0.5535972541175413  0.6088850841058431  1.0000
  H   H19       1.0  0.23491068290009315  0.5713434511683672  0.7563708378196522  1.0000
  H   H20       1.0  0.7650891832453156  0.4286570548764672  0.24362756791560264  1.0000
  H   H21       1.0  0.9976326133994391  0.7952206618001797  0.6636483577535586  1.0000
  H   H22       1.0  0.002368701222323481  0.20477985956990352  0.3363509523327366  1.0000
  H   H23       1.0  0.9141210278212669  0.8402052482873189  0.42237427404050004  1.0000
  H   H24       1.0  0.08587740916685502  0.1597952493610748  0.5776251636133196  1.0000
  C   C1        1.0  0.18929156159460808  0.7784995687733981  0.1581243336761418  1.0000
  C   C2        1.0  0.8107094824155325  0.22150202707068442  0.8418747860303881  1.0000
  C   C3        1.0  0.07005087676477474  0.6723413015343382  0.241266971014177  1.0000
  C   C4        1.0  0.9299481014465982  0.3276570471660634  0.7587328473991732  1.0000
  C   C5        1.0  0.10682712581219529  0.6488002523755085  0.38607893179796793  1.0000
  C   C6        1.0  0.8931744497616662  0.3511991910561676  0.6139196005332862  1.0000
  C   C7        1.0  0.23415071609124283  0.5274746428040799  0.4459354712696141  1.0000
  C   C8        1.0  0.7658488794425367  0.4725269377147541  0.5540627440858827  1.0000
  C   C9        1.0  0.19240613672356946  0.598498678418693  0.6532266381533917  1.0000
  C   C10       1.0  0.807593188198581  0.4015039765741406  0.3467713868223399  1.0000
  C   C11       1.0  0.06356399458751123  0.7215142735178548  0.5993503367262035  1.0000
  C   C12       1.0  0.9364402073274294  0.2784862750383255  0.4006498139273588  1.0000
  C   C13       1.0  0.018908254643228824  0.7461372021777282  0.465812097581086  1.0000
  C   C14       1.0  0.9810913312310205  0.2538643748766987  0.5341851496396046  1.0000
  N   N1        1.0  0.2723824081072479  0.5048602656275847  0.5755620614647086  1.0000
  N   N2        1.0  0.7276189161740376  0.49514025920689886  0.4244382167563856  1.0000
  O   O1        1.0  0.5374134617380903  0.5908536131024462  0.1540548373317705  1.0000
  O   O2        1.0  0.46258671365706766  0.4091458323260113  0.8459476313224598  1.0000
  O   O3        1.0  0.517974369507364  0.8646275412291332  0.07907807929381505  1.0000
  O   O4        1.0  0.48202578656873374  0.1353718972705096  0.9209224530908032  1.0000
  O   O5        1.0  0.5075081604112129  0.7515042356455764  0.32361986007862237  1.0000
  O   O6        1.0  0.4924931638700797  0.24849628918891412  0.6763804181424717  1.0000
  O   O7        1.0  0.2793444248753687  0.6651513785417222  0.9291667395397099  1.0000
  O   O8        1.0  0.7206554605891  0.33484913443192715  0.0708336024651572  1.0000
  O   O9        1.0  0.19649666663116255  0.9390693063581282  0.9112021425882801  1.0000
  O   O10       1.0  0.8035020506281113  0.06093012028067329  0.088798453580111  1.0000
  O   O11       1.0  0.9283551411435697  0.7873424038393609  0.9632615763596063  1.0000
  O   O12       1.0  0.07164529520368748  0.21265596365068976  0.03674011453958309  1.0000
  O   O13       1.0  0.13114642950502295  0.9215104892068737  0.18828597724059654  1.0000
  O   O14       1.0  0.8688554359995209  0.07848788667961769  0.8117146817400211  1.0000
  O   O15       1.0  0.29127686028367356  0.3840459100882825  0.1232394651305668  1.0000
  O   O16       1.0  0.7087232957924243  0.6159535284113673  0.8767610672540583  1.0000
  O   O17       1.0  0.448753127036774  0.0883921977020066  0.21741810911563417  1.0000
  O   O18       1.0  0.5512467584276947  0.9116083152716357  0.7825822328892259  1.0000
