data_image0
_chemical_formula_structural       Zn2H28C44N24O8
_chemical_formula_sum              "Zn2 H28 C44 N24 O8"
_cell_length_a       10.189008765406419
_cell_length_b       10.93139036044257
_cell_length_c       12.223041255942837
_cell_angle_alpha    92.22768893605954
_cell_angle_beta     98.7088734336122
_cell_angle_gamma    113.15092003106479

_space_group_name_H-M_alt    "P 1"
_space_group_IT_number       1

loop_
  _space_group_symop_operation_xyz
  'x, y, z'

loop_
  _atom_site_type_symbol
  _atom_site_label
  _atom_site_symmetry_multiplicity
  _atom_site_fract_x
  _atom_site_fract_y
  _atom_site_fract_z
  _atom_site_occupancy
  Zn  Zn1       1.0  0.7982620088483189  0.2300166827731331  0.9287182485627173  1.0000
  Zn  Zn2       1.0  0.20173805280850135  0.7699845133306412  0.07128224398709904  1.0000
  H   H1        1.0  0.8190683722988439  0.29890598793157624  0.28503661444952405  1.0000
  H   H2        1.0  0.18093181411953907  0.7010932102741877  0.7149638316870864  1.0000
  H   H3        1.0  0.7740396994416016  0.9185306569910737  0.961619640291602  1.0000
  H   H4        1.0  0.2259609211415778  0.08146953805078282  0.03838007394744382  1.0000
  H   H5        1.0  0.30317403579370256  0.6403636884116042  0.8360350972655372  1.0000
  H   H6        1.0  0.6968245943885875  0.3596364914006643  0.16396272731332573  1.0000
  H   H7        1.0  0.08814917437207011  0.48932018528394405  0.8923173465763412  1.0000
  H   H8        1.0  0.911853309038072  0.5106820070980405  0.10768103035151462  1.0000
  H   H9        1.0  0.6652976926648931  0.2962056928550822  0.39703763141158543  1.0000
  H   H10       1.0  0.33470435728353454  0.7037955066376754  0.60296229575998  1.0000
  H   H11       1.0  0.415001797405928  0.29769247653991476  0.8529261691772165  1.0000
  H   H12       1.0  0.5849978279768066  0.7023077108871548  0.14707260023173777  1.0000
  H   H13       1.0  0.124121003629952  0.12625480630190822  0.2502495114339922  1.0000
  H   H14       1.0  0.8758794928947607  0.8737473905848387  0.7497510675644039  1.0000
  H   H15       1.0  0.7518922257918844  0.6922618819937797  0.8755001485749647  1.0000
  H   H16       1.0  0.2481073995908503  0.30773830543328273  0.12449862083398955  1.0000
  H   H17       1.0  0.49867380254836036  0.05619387559575983  0.7574065149657091  1.0000
  H   H18       1.0  0.501324396984586  0.9438053271147667  0.24259613324144177  1.0000
  H   H19       1.0  0.9508380468609231  0.07675437271227284  0.8010656853371645  1.0000
  H   H20       1.0  0.04916158063109323  0.9232458265554018  0.19893553911022374  1.0000
  H   H21       1.0  0.05945192083940039  0.22681496648185373  0.5781155098082706  1.0000
  H   H22       1.0  0.9405487011499646  0.7731852364537489  0.4218858411230571  1.0000
  H   H23       1.0  0.3882461009338981  0.94808238265545  0.43809421013542504  1.0000
  H   H24       1.0  0.6117497966856361  0.05191379825076581  0.5619047788574677  1.0000
  H   H25       1.0  0.8502248178626598  0.47442336977009336  0.7248426326832276  1.0000
  H   H26       1.0  0.14977493439091216  0.5255748315995704  0.2751585453509478  1.0000
  H   H27       1.0  0.25602551791207157  0.18034617559307262  0.6411124171382028  1.0000
  H   H28       1.0  0.7439776519983636  0.8196530336164686  0.3588884084502412  1.0000
  C   C1        1.0  0.8986702906196059  0.2630763625462649  0.322865088487987  1.0000
  C   C2        1.0  0.10132890200451075  0.7369228359384439  0.6771360495108141  1.0000
  C   C3        1.0  0.3427025555269338  0.45856978753072053  0.8401234171743966  1.0000
  C   C4        1.0  0.6572960732491709  0.5414303843878161  0.15987277071219108  1.0000
  C   C5        1.0  0.6844498755503069  0.9230400490370202  0.9034945837847561  1.0000
  C   C6        1.0  0.3155491916091576  0.07696114339882598  0.09650578228111333  1.0000
  C   C7        1.0  0.52982168952434  0.6780067652250281  0.852617741905988  1.0000
  C   C8        1.0  0.4701770661226021  0.32199142063610264  0.14738085460581374  1.0000
  C   C9        1.0  0.38225474938452214  0.5958228284795626  0.8410974788029579  1.0000
  C   C10       1.0  0.617746740231361  0.404179364181367  0.15890158998710294  1.0000
  C   C11       1.0  0.08473886310880369  0.39273886282938253  0.8635715236203368  1.0000
  C   C12       1.0  0.9152617574743758  0.6072613322124738  0.13642819061870887  1.0000
  C   C13       1.0  0.736689394457997  0.33677368528571355  0.47717599227794966  1.0000
  C   C14       1.0  0.2633116623992677  0.6632275184328549  0.5228254451019582  1.0000
  C   C15       1.0  0.4467419810705947  0.4047225585299047  0.8521824439893991  1.0000
  C   C16       1.0  0.5532570853857735  0.5952786299590757  0.14781710373033263  1.0000
  C   C17       1.0  0.06965131341474522  0.16507014943444892  0.30304421409804416  1.0000
  C   C18       1.0  0.9303493085746198  0.8349300535011541  0.6969571368332839  1.0000
  C   C19       1.0  0.5933834835855762  0.4893522900372744  0.8664012685480176  1.0000
  C   C20       1.0  0.4066167021297105  0.5106469042216234  0.13359835924244834  1.0000
  C   C21       1.0  0.9657666948606191  0.20984707516879555  0.2551852914692035  1.0000
  C   C22       1.0  0.03423392712874573  0.7901531277668142  0.7448160594621246  1.0000
  C   C23       1.0  0.6367374309163695  0.6276235549340827  0.8660305304723084  1.0000
  C   C24       1.0  0.3632611999690099  0.37237662882505873  0.13396811245270612  1.0000
  C   C25       1.0  0.5418527690881163  0.9909094419271016  0.8001363710917747  1.0000
  C   C26       1.0  0.45814586531272267  0.0090907615663909  0.19986636356394885  1.0000
  C   C27       1.0  0.7044729548740493  0.4304373755592224  0.8854421940945373  1.0000
  C   C28       1.0  0.2955266719148709  0.5695628197615861  0.11455821200670611  1.0000
  C   C29       1.0  0.017858538972426223  0.18290970077460866  0.8173037763292826  1.0000
  C   C30       1.0  0.9821396570450603  0.8170894822015669  0.18269478014715196  1.0000
  C   C31       1.0  0.9348999214819216  0.269810950658453  0.43822487427680573  1.0000
  C   C32       1.0  0.06509983077165059  0.7301872507112109  0.5617763037573698  1.0000
  C   C33       1.0  0.03628231746170483  0.22277337134171665  0.4879182563266797  1.0000
  C   C34       1.0  0.963717869659767  0.7772258308109201  0.5120830081560684  1.0000
  C   C35       1.0  0.9264199771249151  0.19860634492830093  0.1307214854788228  1.0000
  C   C36       1.0  0.07358064416136056  0.8013938540604288  0.8692790471063605  1.0000
  C   C37       1.0  0.10311610383838142  0.17034936055357974  0.41855301174401666  1.0000
  C   C38       1.0  0.8968855126483393  0.8296508460499514  0.5814484656712582  1.0000
  C   C39       1.0  0.33565720178614095  0.0095512668193507  0.4665985615138554  1.0000
  C   C40       1.0  0.6643429839291384  0.990447927439547  0.5334010662766175  1.0000
  C   C41       1.0  0.8322446816773166  0.4233042591637928  0.6424697099704064  1.0000
  C   C42       1.0  0.16775550474105927  0.5766949390419712  0.3575307361662042  1.0000
  C   C43       1.0  0.2715424383651523  0.1265386804433462  0.5709453962401626  1.0000
  C   C44       1.0  0.72845874184749  0.8734605174834801  0.42905435803425024  1.0000
  N   N1        1.0  0.35579765365019256  0.05915134394869881  0.5752594846784335  1.0000
  N   N2        1.0  0.6442026568266498  0.9408458524121813  0.4247400966988267  1.0000
  N   N3        1.0  0.7124518898066725  0.39842165841091776  0.5626676684168288  1.0000
  N   N4        1.0  0.2875477369822477  0.6015785369098908  0.43733273768441466  1.0000
  N   N5        1.0  0.1951718131146336  0.36998774434587745  0.8320359554412707  1.0000
  N   N6        1.0  0.8048268156614709  0.6300124275726517  0.16796023244531005  1.0000
  N   N7        1.0  0.47624419519040373  0.8590378727552662  0.7821484340153618  1.0000
  N   N8        1.0  0.5237548726721498  0.14096332362746014  0.21785275039665214  1.0000
  N   N9        1.0  0.5678073728542825  0.817240767680836  0.8483501507870985  1.0000
  N   N10       1.0  0.4321912594372819  0.18275942397204403  0.15165012883019813  1.0000
  N   N11       1.0  0.9715305788124623  0.2754808002321952  0.8555502553165584  1.0000
  N   N12       1.0  0.028469047976457745  0.7245193950886061  0.144450150784678  1.0000
  N   N13       1.0  0.865957269156361  0.3251529410916945  0.5049595062447666  1.0000
  N   N14       1.0  0.13404291726202192  0.6748462571140693  0.49504093989184395  1.0000
  N   N15       1.0  0.6702649688599819  0.034426825872778004  0.8744238399057099  1.0000
  N   N16       1.0  0.3297360879972828  0.9655743778457977  0.12557759747419792  1.0000
  N   N17       1.0  0.24522237356573123  0.0421926150444705  0.396017759445357  1.0000
  N   N18       1.0  0.7547759493225924  0.9578045818742994  0.6039832056562917  1.0000
  N   N19       1.0  0.9281829813230471  0.38036279331990386  0.6118967781865481  1.0000
  N   N20       1.0  0.07181677093052483  0.6196354080497599  0.3881043998476273  1.0000
  N   N21       1.0  0.15336815148182129  0.23595654685697545  0.8016123867679287  1.0000
  N   N22       1.0  0.8466314739009136  0.764043640570087  0.19838638264102582  1.0000
  N   N23       1.0  0.20409096018070727  0.11773960628053709  0.46400266834236703  1.0000
  N   N24       1.0  0.7959092262376686  0.8822595919252264  0.5359977777942363  1.0000
  O   O1        1.0  0.8368994230077573  0.5052793167717908  0.9041070265864024  1.0000
  O   O2        1.0  0.1630996427455216  0.49472186777031624  0.09589170278718483  1.0000
  O   O3        1.0  0.970545352337538  0.13246246918777874  0.07124206828470395  1.0000
  O   O4        1.0  0.029456264149182225  0.867537737415745  0.9287594091305709  1.0000
  O   O5        1.0  0.8434138744578306  0.25835505666011477  0.09264712285553865  1.0000
  O   O6        1.0  0.15658674753153431  0.7416451462754879  0.9073542280757895  1.0000
  O   O7        1.0  0.6512965016925065  0.3012230341882472  0.8826961921478687  1.0000
  O   O8        1.0  0.3487021298959689  0.6987771535177673  0.11730326912328344  1.0000
