data_image0
_chemical_formula_structural       Zn16H20C96S16Cl4O52F8
_chemical_formula_sum              "Zn16 H20 C96 S16 Cl4 O52 F8"
_cell_length_a       19.679475537839465
_cell_length_b       19.70825671680482
_cell_length_c       33.39800019821084
_cell_angle_alpha    79.05033504914641
_cell_angle_beta     79.13287939483668
_cell_angle_gamma    63.90884639559336

_space_group_name_H-M_alt    "P 1"
_space_group_IT_number       1

loop_
  _space_group_symop_operation_xyz
  'x, y, z'

loop_
  _atom_site_type_symbol
  _atom_site_label
  _atom_site_symmetry_multiplicity
  _atom_site_fract_x
  _atom_site_fract_y
  _atom_site_fract_z
  _atom_site_occupancy
  Zn  Zn1       1.0  0.0548799432796443  0.4001618786289569  0.4780105451394334  1.0000
  Zn  Zn2       1.0  0.9848497345013317  0.4837564768561505  0.5610197908418968  1.0000
  Zn  Zn3       1.0  0.0588300301105278  0.560188109733538  0.4825500850565874  1.0000
  Zn  Zn4       1.0  0.9012514339709412  0.5551031295282987  0.4796487851479299  1.0000
  Zn  Zn5       1.0  0.6946562828590785  0.34900568174381175  0.27174729672142217  1.0000
  Zn  Zn6       1.0  0.6887109906834041  0.18952533689783732  0.26623842860717417  1.0000
  Zn  Zn7       1.0  0.7685379903869318  0.2664258086850639  0.1906212421529716  1.0000
  Zn  Zn8       1.0  0.8482247247465082  0.19464398778055886  0.2726923225368054  1.0000
  Zn  Zn9       1.0  0.2670063218556322  0.7664971598117136  0.6896247165391288  1.0000
  Zn  Zn10      1.0  0.3494517601237845  0.6960549795551646  0.7722708420931141  1.0000
  Zn  Zn11      1.0  0.19355926104437057  0.847547124381663  0.7712417485863767  1.0000
  Zn  Zn12      1.0  0.1908774330268059  0.6883159326622207  0.766577475067848  1.0000
  Zn  Zn13      1.0  0.5606090899920844  0.05988405233454591  0.983299389208355  1.0000
  Zn  Zn14      1.0  0.40131848216472576  0.05508541949364348  0.9782101190419255  1.0000
  Zn  Zn15      1.0  0.5549387939857625  0.9012854138433186  0.9781484411260877  1.0000
  Zn  Zn16      1.0  0.4838437818437029  0.9829441232242933  0.06037030101170157  1.0000
  H   H1        1.0  0.954854500056662  0.2486235405335011  0.3516840095806373  1.0000
  H   H2        1.0  0.7473045286907691  0.4536340468606071  0.35030884945638974  1.0000
  H   H3        1.0  0.9997271409260048  0.299435090736502  0.39959442075223717  1.0000
  H   H4        1.0  0.09689389937135219  0.5967862724913787  0.6998830733952488  1.0000
  H   H5        1.0  0.20156892293772438  0.7014148946053923  0.5979968562925464  1.0000
  H   H6        1.0  0.05057148499201959  0.5508053664890442  0.6502907668391985  1.0000
  H   H7        1.0  0.46329240904154995  0.24026886074855014  0.3410530488552439  1.0000
  H   H8        1.0  0.4793559501931384  0.7025793214515588  0.6014171729157455  1.0000
  H   H9        1.0  0.20272037394757794  0.9791664796136677  0.601636653408498  1.0000
  H   H10       1.0  0.9483203178222653  0.9702018071407681  0.34793866666309725  1.0000
  H   H11       1.0  0.5499608660207542  0.050013776417934384  0.15345700713184132  1.0000
  H   H12       1.0  0.6517578323156386  0.15194463338543343  0.04880428030315191  1.0000
  H   H13       1.0  0.5995057163804063  0.09945681857015395  0.19968201529225377  1.0000
  H   H14       1.0  0.5475549675505391  0.7703611736678085  0.1482897877900058  1.0000
  H   H15       1.0  0.16292499104813626  0.14127749865068756  0.0406219164789761  1.0000
  H   H16       1.0  0.5014831362135508  0.7950303729678301  0.8983734509584876  1.0000
  H   H17       1.0  0.29664196231284023  0.002779705512672588  0.8996477607518472  1.0000
  H   H18       1.0  0.45014570088616773  0.750816960375197  0.8504449785718861  1.0000
  H   H19       1.0  0.3012657184597103  0.27972566897769013  0.9021070076769745  1.0000
  H   H20       1.0  0.7868909606539631  0.009535445729874067  0.9089773375510148  1.0000
  C   C1        1.0  0.0614646339912213  0.31637112657688954  0.5617043686366188  1.0000
  C   C2        1.0  0.06878285997927239  0.5697365596432749  0.5694653766358968  1.0000
  C   C3        1.0  0.1832484531345671  0.43974359291686943  0.4385727779361445  1.0000
  C   C4        1.0  0.9371212983576668  0.6837600568048363  0.438784416314938  1.0000
  C   C5        1.0  0.9317422541185678  0.4296559845023965  0.4308757470965503  1.0000
  C   C6        1.0  0.8168465943686768  0.5611965679242702  0.5621438677259221  1.0000
  C   C7        1.0  0.5657082850469379  0.31146612528824147  0.3112749414194268  1.0000
  C   C8        1.0  0.6805724969639755  0.18006091682379835  0.181234484847451  1.0000
  C   C9        1.0  0.6896653390844634  0.43322231811645684  0.18836872797641036  1.0000
  C   C10       1.0  0.9349101455942304  0.18791487548988076  0.18977850405561006  1.0000
  C   C11       1.0  0.8194997041215685  0.319289576933322  0.31953576688018615  1.0000
  C   C12       1.0  0.8109798168035168  0.0659518597651855  0.3115267419930703  1.0000
  C   C13       1.0  0.4337269969248752  0.6894746832415852  0.6883224659771727  1.0000
  C   C14       1.0  0.3196232217598123  0.8190917187129405  0.8191769608186377  1.0000
  C   C15       1.0  0.18872045939767904  0.9334960258563784  0.6884257194683912  1.0000
  C   C16       1.0  0.0660392129371985  0.8097777231760261  0.8110394401001315  1.0000
  C   C17       1.0  0.18088979633733973  0.6803794640910896  0.6805860135439232  1.0000
  C   C18       1.0  0.3126480038801843  0.5660972454469901  0.8112969205045459  1.0000
  C   C19       1.0  0.4385219325740692  0.18385001477878407  0.9386932026787848  1.0000
  C   C20       1.0  0.4308851627952421  0.9302825339440444  0.9306182292353568  1.0000
  C   C21       1.0  0.6840370284332168  0.9387038214029247  0.9386829725945276  1.0000
  C   C22       1.0  0.5614415101371435  0.8159375555455174  0.06143975483033156  1.0000
  C   C23       1.0  0.5693205479976058  0.06905886124721411  0.06963799767525809  1.0000
  C   C24       1.0  0.3161019884724539  0.061384376621489885  0.0612564987234805  1.0000
  C   C25       1.0  0.8997783988003434  0.40454162173617914  0.40205505332772157  1.0000
  C   C26       1.0  0.8481626749895383  0.3482016542196293  0.3480362309027498  1.0000
  C   C27       1.0  0.8277718087158235  0.4481545343245586  0.3877274769391548  1.0000
  C   C28       1.0  0.9196864079210201  0.3043170766544634  0.3618961308841619  1.0000
  C   C29       1.0  0.802845269314595  0.41963609008025343  0.361021333102876  1.0000
  C   C30       1.0  0.9443840506035456  0.33265059964664834  0.3884514784577746  1.0000
  C   C31       1.0  0.0993485609767006  0.5997628120721077  0.5964810163883385  1.0000
  C   C32       1.0  0.15215039617154247  0.6520434566040765  0.6518591393607808  1.0000
  C   C33       1.0  0.1426065462862098  0.6427817649146946  0.581853881667854  1.0000
  C   C34       1.0  0.10944316473854342  0.6094001983558643  0.666871153125598  1.0000
  C   C35       1.0  0.16837350936205547  0.6683812903287178  0.6095686707178986  1.0000
  C   C36       1.0  0.08383048953449898  0.5840193982277953  0.639301393955698  1.0000
  C   C37       1.0  0.3042561237002914  0.4536172178628634  0.4009453882085552  1.0000
  C   C38       1.0  0.4462097824375634  0.29700347185711007  0.3489970356609362  1.0000
  C   C39       1.0  0.2580920492515019  0.4149481933752597  0.41392154770831263  1.0000
  C   C40       1.0  0.4910281110084682  0.3368317267675067  0.3364091434423671  1.0000
  C   C41       1.0  0.3780879320204207  0.3399214158442803  0.3726050960278044  1.0000
  C   C42       1.0  0.3728327608734929  0.41172013011580344  0.3773795945786986  1.0000
  C   C43       1.0  0.7253608057446854  0.5762631753597706  0.6293946385880317  1.0000
  C   C44       1.0  0.5241097746736331  0.6736138719657137  0.6214080520849021  1.0000
  C   C45       1.0  0.7422966865263091  0.585554578006644  0.5869977601281207  1.0000
  C   C46       1.0  0.5088754533695763  0.6637876109560285  0.6637491727420581  1.0000
  C   C47       1.0  0.6033428774050265  0.6415032201276462  0.6090413437713948  1.0000
  C   C48       1.0  0.6464629394481348  0.6078579828229426  0.6425034257812285  1.0000
  C   C49       1.0  0.0767364236109387  0.22500489592821543  0.6291021778969323  1.0000
  C   C50       1.0  0.17381994425848293  0.023915054978729713  0.6215303819972604  1.0000
  C   C51       1.0  0.08600401787325751  0.24184392991793405  0.586677816909571  1.0000
  C   C52       1.0  0.16372863384574998  0.008689467677022802  0.663870282223712  1.0000
  C   C53       1.0  0.14190833937909278  0.10303243238795555  0.6090444962953256  1.0000
  C   C54       1.0  0.10823504709415488  0.14620051150152594  0.6423949336742895  1.0000
  C   C55       1.0  0.8439435224097878  0.8008592182819501  0.3972648842674786  1.0000
  C   C56       1.0  0.9039880951990185  0.9497671306553885  0.3524970213176318  1.0000
  C   C57       1.0  0.9122167346600133  0.7581931417490754  0.41379860751650455  1.0000
  C   C58       1.0  0.8353770190598552  0.9910685281992007  0.336401863379983  1.0000
  C   C59       1.0  0.9068787701970322  0.8801970507767793  0.3746391131729324  1.0000
  C   C60       1.0  0.8399520711836814  0.8704745792860327  0.3748367530673988  1.0000
  C   C61       1.0  0.6533828053900876  0.15325288285696118  0.1508608793612538  1.0000
  C   C62       1.0  0.5979646306776445  0.09793718301714459  0.0981768321001795  1.0000
  C   C63       1.0  0.6679085795131385  0.16793852419048969  0.1076779645400237  1.0000
  C   C64       1.0  0.5829673638831139  0.08298647534645907  0.14089341034351574  1.0000
  C   C65       1.0  0.6401959640057272  0.14025689478182096  0.08193761625473428  1.0000
  C   C66       1.0  0.6105081758717219  0.11049638236413989  0.1664387933059359  1.0000
  C   C67       1.0  0.6736355218356564  0.5244346648759405  0.12088137940760654  1.0000
  C   C68       1.0  0.5764775328126105  0.725586522866252  0.12840359442179056  1.0000
  C   C69       1.0  0.6644576357075139  0.5076612307861839  0.16332597198372403  1.0000
  C   C70       1.0  0.586521106142655  0.7407856302534486  0.08605889109881561  1.0000
  C   C71       1.0  0.6083526228187067  0.6464500786421117  0.14091708355608998  1.0000
  C   C72       1.0  0.6420271227227161  0.6032396399114649  0.10757053695289187  1.0000
  C   C73       1.0  0.0816408627383822  0.12403588894831334  0.1776287912512728  1.0000
  C   C74       1.0  0.170478367458152  0.12473594152182703  0.0730049382434927  1.0000
  C   C75       1.0  0.0095467106158438  0.1629106065969381  0.1649228769580589  1.0000
  C   C76       1.0  0.2416224000731546  0.08598260716293993  0.086562516327767  1.0000
  C   C77       1.0  0.11220371063146932  0.13850917847798883  0.10642203588157878  1.0000
  C   C78       1.0  0.1407778813521503  0.10965399622059381  0.1447347886750947  1.0000
  C   C79       1.0  0.3451013872087572  0.8509066234243154  0.8478967339344693  1.0000
  C   C80       1.0  0.402027731005738  0.9018878034361895  0.9019635754759746  1.0000
  C   C81       1.0  0.3017187012294614  0.9227880668744822  0.862189277306726  1.0000
  C   C82       1.0  0.44572102162862137  0.830447042109015  0.8881401734386215  1.0000
  C   C83       1.0  0.3305090175365493  0.9473910394197492  0.8889026829948321  1.0000
  C   C84       1.0  0.41710553803127937  0.8060827944553852  0.8615509167834148  1.0000
  C   C85       1.0  0.4058120692659273  0.44891768289001993  0.8528638403770187  1.0000
  C   C86       1.0  0.3456622937190729  0.3000499528285303  0.897591434686035  1.0000
  C   C87       1.0  0.3376212953968576  0.49154700472346524  0.8362422343373694  1.0000
  C   C88       1.0  0.4141951258970948  0.25868650792804004  0.9137728207170213  1.0000
  C   C89       1.0  0.3429769028422314  0.369462169036133  0.875313124438506  1.0000
  C   C90       1.0  0.40987699761926427  0.3791871904902281  0.8752073235940542  1.0000
  C   C91       1.0  0.945286659464742  0.7959345241999788  0.8491432745780757  1.0000
  C   C92       1.0  0.8038316134417229  0.9527728958189103  0.9011177798779427  1.0000
  C   C93       1.0  0.9915177804530231  0.834470653152124  0.8360021627066274  1.0000
  C   C94       1.0  0.758834119698399  0.9131138028756711  0.9137252384399019  1.0000
  C   C95       1.0  0.8719014047190825  0.9096425655759575  0.8775379415153921  1.0000
  C   C96       1.0  0.8769131618272468  0.8378991017915427  0.8728188801005244  1.0000
  S   S1        1.0  0.2993014502049007  0.32542629535452505  0.3970679668215098  1.0000
  S   S2        1.0  0.45121304699132037  0.4264579472535532  0.3530107099477533  1.0000
  S   S3        1.0  0.6602194014606297  0.6337187120965526  0.5625107521285457  1.0000
  S   S4        1.0  0.5900422596520443  0.6155937458011779  0.6889497133941802  1.0000
  S   S5        1.0  0.1341840098290419  0.159732785116816  0.562415970035758  1.0000
  S   S6        1.0  0.11561930274609718  0.08984862446722276  0.688922966573152  1.0000
  S   S7        1.0  0.9729661293639822  0.8039646629296371  0.40174529866881403  1.0000
  S   S8        1.0  0.7738346245123396  0.9462687415193329  0.3479112886425498  1.0000
  S   S9        1.0  0.6160540057205637  0.5898066905580284  0.18755925417364236  1.0000
  S   S10       1.0  0.6345746288200118  0.6595762195432614  0.06103481585316224  1.0000
  S   S11       1.0  0.013939612557607005  0.1824064740222724  0.1116186142563151  1.0000
  S   S12       1.0  0.2386668444603259  0.06582206737176938  0.1397667394430755  1.0000
  S   S13       1.0  0.2769981781196265  0.4456343968308901  0.8481268492104519  1.0000
  S   S14       1.0  0.47585627174797906  0.3033910498407411  0.9022276542830524  1.0000
  S   S15       1.0  0.9507146043423943  0.9239524106374406  0.8529151211028677  1.0000
  S   S16       1.0  0.7984291660882833  0.8234216798628826  0.8972209244828803  1.0000
  Cl  Cl1       1.0  0.7651316381534558  0.5373500279681095  0.4008870063540115  1.0000
  Cl  Cl2       1.0  0.1676916644797188  0.6672732348234266  0.5305719231390569  1.0000
  Cl  Cl3       1.0  0.7189153285437654  0.2194054147484652  0.08289323333927706  1.0000
  Cl  Cl4       1.0  0.21244189714285966  0.9856710339403847  0.8489470345207621  1.0000
  O   O1        1.0  0.0006638127305364998  0.49817162023359174  0.5005476955085015  1.0000
  O   O2        1.0  0.0778622177943475  0.315182600664997  0.5227584071077375  1.0000
  O   O3        1.0  0.0315837626290545  0.530920582098503  0.5875339529434597  1.0000
  O   O4        1.0  0.1550527825682764  0.5062710695863474  0.4494833059855878  1.0000
  O   O5        1.0  0.026520350192491493  0.3747085032216476  0.5808817386465179  1.0000
  O   O6        1.0  0.15339040639694448  0.39182117122624066  0.4466721379092959  1.0000
  O   O7        1.0  0.0818248571625517  0.5850112654397253  0.5308904443125827  1.0000
  O   O8        1.0  0.004224624912175999  0.6568443838455309  0.44946870653565446  1.0000
  O   O9        1.0  0.8908117719049073  0.4940912592724944  0.4433673866397996  1.0000
  O   O10       1.0  0.8904096508173325  0.6528763231810047  0.44760585763480515  1.0000
  O   O11       1.0  0.9980758517858916  0.3838876721779058  0.44071422631514423  1.0000
  O   O12       1.0  0.8755763735476306  0.526219188814622  0.5811436012679181  1.0000
  O   O13       1.0  0.8153349707702375  0.5779158610617188  0.52321609609335  1.0000
  O   O14       1.0  0.7494485259607018  0.24955204430003167  0.250852816825379  1.0000
  O   O15       1.0  0.5964655199903035  0.35859348854214823  0.3031922169060337  1.0000
  O   O16       1.0  0.6617633886668415  0.16279242067086852  0.2193159103948901  1.0000
  O   O17       1.0  0.7260941624351034  0.37468678119148563  0.1693943142163974  1.0000
  O   O18       1.0  0.5927322690457899  0.2453158594085069  0.2998750021135947  1.0000
  O   O19       1.0  0.6725097664576012  0.43436009045784396  0.2272956388695633  1.0000
  O   O20       1.0  0.720065632939054  0.21765163816191108  0.16708370398032457  1.0000
  O   O21       1.0  0.8771900263841913  0.22375882323806465  0.1696553747033747  1.0000
  O   O22       1.0  0.862978910873629  0.25327015629412863  0.3090565040334994  1.0000
  O   O23       1.0  0.9340296203628426  0.17205872735253552  0.22864551086621526  1.0000
  O   O24       1.0  0.7540991050733296  0.36296502726785485  0.3081133656148651  1.0000
  O   O25       1.0  0.7446149476814484  0.09343656851812905  0.2998992910956559  1.0000
  O   O26       1.0  0.858159542121939  0.09640094445327925  0.3038657480507752  1.0000
  O   O27       1.0  0.25091926958695143  0.7488589882816614  0.7498552896012711  1.0000
  O   O28       1.0  0.37575712333034517  0.7249289155083363  0.6685995323688871  1.0000
  O   O29       1.0  0.3660222335528687  0.753521815905977  0.8087918261463685  1.0000
  O   O30       1.0  0.1717637844378714  0.9333671948294654  0.7273688918416781  1.0000
  O   O31       1.0  0.43373641129418417  0.673781599057726  0.7273065044744271  1.0000
  O   O32       1.0  0.2247255665727508  0.8755937263271106  0.6688377753925964  1.0000
  O   O33       1.0  0.2543022191408255  0.8592374302206952  0.8073611352655803  1.0000
  O   O34       1.0  0.0955897400324517  0.8580076051568002  0.8029596955959734  1.0000
  O   O35       1.0  0.1650948482808161  0.6632826972879967  0.7189166640570761  1.0000
  O   O36       1.0  0.0944386086850102  0.7435433008533822  0.7997556367465748  1.0000
  O   O37       1.0  0.21879258265810364  0.7192672453812038  0.6643375300976615  1.0000
  O   O38       1.0  0.3587144654372096  0.5977489513938751  0.8033211110498613  1.0000
  O   O39       1.0  0.2461641833121178  0.5922039654353528  0.7999135470762511  1.0000
  O   O40       1.0  0.5000904482489333  0.9998235032867486  5.365945278870472e-05  1.0000
  O   O41       1.0  0.5052058396797605  0.1561763233668501  0.9499661802648447  1.0000
  O   O42       1.0  0.3874546308234486  0.9958768810281741  0.94172844063403  1.0000
  O   O43       1.0  0.6530700530864165  0.8917748370925768  0.946736290869211  1.0000
  O   O44       1.0  0.3912833061901324  0.15342119383961983  0.9467826658284864  1.0000
  O   O45       1.0  0.6569414839158795  0.004975065786929742  0.949974691416557  1.0000
  O   O46       1.0  0.496603545877214  0.8864692924299503  0.9415627361285104  1.0000
  O   O47       1.0  0.5775514968156656  0.8159840854734599  0.022470543303967413  1.0000
  O   O48       1.0  0.5310393172650479  0.030693533332914875  0.08613617286187039  1.0000
  O   O49       1.0  0.5260942361062533  0.8739140084572203  0.08103081920572915  1.0000
  O   O50       1.0  0.5855676523738181  0.08513470425129563  0.031220502367943912  1.0000
  O   O51       1.0  0.315672971327551  0.0779289069162274  0.022411984866799607  1.0000
  O   O52       1.0  0.37456105469067325  0.025496564907825793  0.08074395099318109  1.0000
  F   F1        1.0  0.2868808979763032  0.5237085101806401  0.4095125071586451  1.0000
  F   F2        1.0  0.777663084705182  0.541175139003066  0.6558767544938888  1.0000
  F   F3        1.0  0.04163929390357169  0.27729223811350323  0.6554874422001973  1.0000
  F   F4        1.0  0.7866750087134379  0.7793747728677476  0.40167047445684995  1.0000
  F   F5        1.0  0.7087940628812603  0.47209810918595013  0.09453224306724206  1.0000
  F   F6        1.0  0.0953032752934178  0.10183627959634838  0.2170257754491445  1.0000
  F   F7        1.0  0.463018495302883  0.4704886463312052  0.8485546636800194  1.0000
  F   F8        1.0  0.9625616942787758  0.7258613926590558  0.8405703821798909  1.0000
