data_image0
_chemical_formula_structural       Cd2H48C56S4N20
_chemical_formula_sum              "Cd2 H48 C56 S4 N20"
_cell_length_a       10.852301186229706
_cell_length_b       10.852330680440925
_cell_length_c       13.11717543514367
_cell_angle_alpha    72.95437175978572
_cell_angle_beta     72.95416566133495
_cell_angle_gamma    84.52609864177927

_space_group_name_H-M_alt    "P 1"
_space_group_IT_number       1

loop_
  _space_group_symop_operation_xyz
  'x, y, z'

loop_
  _atom_site_type_symbol
  _atom_site_label
  _atom_site_symmetry_multiplicity
  _atom_site_fract_x
  _atom_site_fract_y
  _atom_site_fract_z
  _atom_site_occupancy
  Cd  Cd1       1.0  0.999993783616574  0.5000020087073055  0.49999760395951404  1.0000
  Cd  Cd2       1.0  0.4999994782952085  6.872440395011457e-07  8.248917709531126e-07  1.0000
  H   H1        1.0  0.0969518614602478  0.7113333625978626  0.8072907946620943  1.0000
  H   H2        1.0  0.2886681244904281  0.9030476431928564  0.6927105509297106  1.0000
  H   H3        1.0  0.9030511844649569  0.2886672128762129  0.1927096963583351  1.0000
  H   H4        1.0  0.7113320369809061  0.09695102923061683  0.30729033042419474  1.0000
  H   H5        1.0  0.1532914442716873  0.7684368612364453  0.9549948519007287  1.0000
  H   H6        1.0  0.23156418063258852  0.8467086016642401  0.5450049466771885  1.0000
  H   H7        1.0  0.8467106378045129  0.2315637217306943  0.045005869383736366  1.0000
  H   H8        1.0  0.7684350187191954  0.15329104628983004  0.4549944067229035  1.0000
  H   H9        1.0  0.7890378366694437  0.621727864693284  0.1843443975844039  1.0000
  H   H10       1.0  0.3782729971582981  0.2109636018481638  0.31565896926096576  1.0000
  H   H11       1.0  0.2109623198191599  0.3782727353690305  0.8156560208492678  1.0000
  H   H12       1.0  0.6217281139757561  0.7890389141418127  0.6843422827461793  1.0000
  H   H13       1.0  0.7344337634247609  0.5583324530788474  0.037818962019642195  1.0000
  H   H14       1.0  0.4416648696922253  0.26556541649955534  0.4621850287029829  1.0000
  H   H15       1.0  0.2655683286169079  0.4416642746106235  0.9621826851052829  1.0000
  H   H16       1.0  0.5583372173667057  0.7344332388287498  0.5378161555017087  1.0000
  H   H17       1.0  0.0640351507648873  0.6045645002508238  0.7059520731958243  1.0000
  H   H18       1.0  0.39543544829551547  0.9359636975906299  0.7940512442886811  1.0000
  H   H19       1.0  0.9359669309303554  0.39543704864478724  0.29404765324967025  1.0000
  H   H20       1.0  0.6045647093359534  0.06403400468626332  0.20595215866192973  1.0000
  H   H21       1.0  0.6981834471294591  0.5191976684470632  0.6948411417736153  1.0000
  H   H22       1.0  0.4808058884292095  0.3018145564547297  0.8051622430774331  1.0000
  H   H23       1.0  0.30181766573404906  0.48080581558044605  0.3051583520156811  1.0000
  H   H24       1.0  0.5191942680593938  0.6981860436075848  0.19483817535624584  1.0000
  H   H25       1.0  0.6707525415978708  0.5721935140415083  0.8950361718328707  1.0000
  H   H26       1.0  0.42780647141768924  0.3292456688711027  0.6049665869044247  1.0000
  H   H27       1.0  0.32924954469914525  0.4278070731437398  0.10496302269386597  1.0000
  H   H28       1.0  0.5721917694487786  0.6707510930087182  0.39503445451890673  1.0000
  H   H29       1.0  0.046637579264825  0.6517325057820289  0.22369794230232287  1.0000
  H   H30       1.0  0.3482703096766855  0.9533640182803326  0.27630119188743407  1.0000
  H   H31       1.0  0.9533644978286447  0.34827000482394516  0.7763023160619226  1.0000
  H   H32       1.0  0.6517317745099193  0.046636566795861305  0.723698766018167  1.0000
  H   H33       1.0  0.9178134535313802  0.762068216075818  0.2304498159620394  1.0000
  H   H34       1.0  0.23793335546891833  0.08218430705510121  0.2695512288263373  1.0000
  H   H35       1.0  0.08218670295722319  0.23793238398649663  0.7695506024716394  1.0000
  H   H36       1.0  0.7620687333194667  0.9178153163107298  0.7304481971605128  1.0000
  H   H37       1.0  0.2772085080492275  0.7343753655586555  0.12384423304946067  1.0000
  H   H38       1.0  0.26562961867110607  0.722792094611151  0.3761552180384626  1.0000
  H   H39       1.0  0.7227916413462339  0.26562716003343223  0.8761564858428557  1.0000
  H   H40       1.0  0.734373426873141  0.2772094467914031  0.6238442781429896  1.0000
  H   H41       1.0  0.20403127525081996  0.13493737860416394  0.04687834490796659  1.0000
  H   H42       1.0  0.865064946273435  0.7959664859724852  0.453122613722485  1.0000
  H   H43       1.0  0.7959669485570374  0.8650651640830989  0.9531220711335562  1.0000
  H   H44       1.0  0.13493713005811972  0.20403795649043127  0.5468756549637988  1.0000
  H   H45       1.0  0.9698755746031081  0.0046943238083799  0.12046836664230647  1.0000
  H   H46       1.0  0.9953067489602533  0.030123269874678695  0.37953317104769724  1.0000
  H   H47       1.0  0.030123620146895302  0.9953062858560529  0.8795315186765436  1.0000
  H   H48       1.0  0.004697257560671599  0.9698801937827074  0.6204648685706218  1.0000
  C   C1        1.0  0.9102708352060489  0.6335647502490858  0.9120246939082437  1.0000
  C   C2        1.0  0.36643644380793455  0.0897275971492277  0.5879775243219356  1.0000
  C   C3        1.0  0.08973028302114731  0.3664358402111105  0.0879762576402641  1.0000
  C   C4        1.0  0.633563717282442  0.9102720412027238  0.4120223621929854  1.0000
  C   C5        1.0  0.2557569033592414  0.5142770199738536  0.5823825850551003  1.0000
  C   C6        1.0  0.4857103780770231  0.7442301985761902  0.9176140742264352  1.0000
  C   C7        1.0  0.7442269804549326  0.48570546028228284  0.41760248086446683  1.0000
  C   C8        1.0  0.5142907332323573  0.2557665197338821  0.08239391019345281  1.0000
  C   C9        1.0  0.028285718519676095  0.6923234199114746  0.8895254829302814  1.0000
  C   C10       1.0  0.3076775996512282  0.9717140462922842  0.610475204883592  1.0000
  C   C11       1.0  0.9717163656669284  0.3076771651647192  0.1104744749753195  1.0000
  C   C12       1.0  0.6923235277795213  0.028284620747193394  0.38952468282739977  1.0000
  C   C13       1.0  0.0595871859182537  0.7254938607035228  0.9736356817668793  1.0000
  C   C14       1.0  0.2745082166293074  0.9404124760349718  0.5263655405507848  1.0000
  C   C15       1.0  0.9404148915561665  0.2745076839739795  0.02636557143634377  1.0000
  C   C16       1.0  0.7254929083100735  0.059587154823923114  0.47363411570010083  1.0000
  C   C17       1.0  0.9737785955927691  0.7025065495251185  0.08002476871555328  1.0000
  C   C18       1.0  0.29749555690560203  0.026220218941553207  0.4199765287294142  1.0000
  C   C19       1.0  0.026221558404465398  0.2974950143566133  0.9199754182580051  1.0000
  C   C20       1.0  0.7025065272810024  0.9737803661346405  0.5800234291761868  1.0000
  C   C21       1.0  0.8566956871519977  0.642632722970049  0.10156613395159304  1.0000
  C   C22       1.0  0.35736705108086403  0.1433037443322931  0.39843563949207805  1.0000
  C   C23       1.0  0.14330639454324506  0.3573688259255619  0.8984335924939018  1.0000
  C   C24       1.0  0.6426321415587352  0.8566968632230784  0.6015650092056363  1.0000
  C   C25       1.0  0.8249424075623963  0.6072309737761403  0.01871031942184945  1.0000
  C   C26       1.0  0.39276918208028627  0.1750570940004152  0.4812913412048588  1.0000
  C   C27       1.0  0.1750587127752112  0.3927696187931108  0.9812898687477868  1.0000
  C   C28       1.0  0.6072319382573211  0.8249434985688353  0.5187088469647776  1.0000
  C   C29       1.0  0.9608028213340702  0.5905665697855866  0.727883232015145  1.0000
  C   C30       1.0  0.4094343229763524  0.03919724948958961  0.7721193236768542  1.0000
  C   C31       1.0  0.039199262852541494  0.4094340152906071  0.2721167258904558  1.0000
  C   C32       1.0  0.5905667956318013  0.9608023750421282  0.22788262271063076  1.0000
  C   C33       1.0  0.7705222978285773  0.5432906931489541  0.7278191023907966  1.0000
  C   C34       1.0  0.45671094502338855  0.2294754962054952  0.7721839794175551  1.0000
  C   C35       1.0  0.22947978099434607  0.45671278549455274  0.2721793977556004  1.0000
  C   C36       1.0  0.5432863206801173  0.770523194479047  0.22781911948618466  1.0000
  C   C37       1.0  0.7554333268891539  0.5696369379511097  0.8270579626496826  1.0000
  C   C38       1.0  0.43036283051212365  0.24456420408220947  0.6729464406414394  1.0000
  C   C39       1.0  0.24456875480608886  0.4303646109445011  0.1729417637958051  1.0000
  C   C40       1.0  0.5696344376827439  0.7554335227829155  0.3270568897224138  1.0000
  C   C41       1.0  0.0056773102260053  0.7357226206744087  0.17345767176430363  1.0000
  C   C42       1.0  0.26428057099793273  0.9943217649005117  0.3265436414281312  1.0000
  C   C43       1.0  0.9943228462625981  0.2642779793878987  0.826542746669368  1.0000
  C   C44       1.0  0.7357234383953185  0.005679769008985104  0.6734556244892858  1.0000
  C   C45       1.0  0.22781274241421562  0.8270693599595232  0.11372579050733832  1.0000
  C   C46       1.0  0.17293273932521908  0.7721854864429145  0.3862750831370789  1.0000
  C   C47       1.0  0.7721864431322416  0.1729331731256281  0.8862751586490133  1.0000
  C   C48       1.0  0.8270693487012579  0.2278160687798661  0.6137223531718091  1.0000
  C   C49       1.0  0.1840653675875643  0.0326826776044413  0.0743676437974727  1.0000
  C   C50       1.0  0.9673204063537639  0.8159321789272841  0.425631568461881  1.0000
  C   C51       1.0  0.8159328583307043  0.9673198671918826  0.9256320088651792  1.0000
  C   C52       1.0  0.03268263880952559  0.18407032840374174  0.5743669328805936  1.0000
  C   C53       1.0  0.0683509817168968  0.9700711102148534  0.11056554331352686  1.0000
  C   C54       1.0  0.0299291790735623  0.9316480212217471  0.38943210085811586  1.0000
  C   C55       1.0  0.9316491853237564  0.0299295003927469  0.8894310582258099  1.0000
  C   C56       1.0  0.9700729064615458  0.06835449782045801  0.6105651039906588  1.0000
  S   S1        1.0  0.33194421077244846  0.590762134815364  0.6346749926417914  1.0000
  S   S2        1.0  0.40923799049483023  0.6680403079445725  0.8653146503829204  1.0000
  S   S3        1.0  0.6680338506421322  0.4092290479014339  0.3653154787519028  1.0000
  S   S4        1.0  0.5907602348368569  0.33195837102879727  0.13468974501451922  1.0000
  N   N1        1.0  0.19851825941552184  0.45664397851537336  0.5462276150125263  1.0000
  N   N2        1.0  0.5433374764575802  0.8014717917269394  0.9537758635828624  1.0000
  N   N3        1.0  0.8014703931994728  0.5433432454095382  0.4537688831058944  1.0000
  N   N4        1.0  0.45665978886496816  0.1985278648860742  0.04622624048189998  1.0000
  N   N5        1.0  0.877213987008453  0.6001488027345588  0.8262829830418568  1.0000
  N   N6        1.0  0.39984987198302246  0.12278416443115961  0.6737206713795771  1.0000
  N   N7        1.0  0.1227880992885702  0.39985178445068936  0.17371621148488  1.0000
  N   N8        1.0  0.6001483621712609  0.8772135570499558  0.32628166534137637  1.0000
  N   N9        1.0  0.898729649270109  0.5558853239988937  0.6673640344895871  1.0000
  N   N10       1.0  0.444115984236042  0.10126771177258583  0.8326383413925953  1.0000
  N   N11       1.0  0.10127050645657928  0.44411720792037107  0.3326343942661296  1.0000
  N   N12       1.0  0.5558841751248805  0.8987309585418332  0.1673633033401671  1.0000
  N   N13       1.0  0.09747593339201185  0.8398943833577234  0.135998245974264  1.0000
  N   N14       1.0  0.16010716457691393  0.9025230921896679  0.3640027261698293  1.0000
  N   N15       1.0  0.9025242209861801  0.1601062145955297  0.864002935838279  1.0000
  N   N16       1.0  0.8398949192287404  0.09747845881499735  0.6359962368967942  1.0000
  N   N17       1.0  0.28255962079618513  0.942266313094507  0.07685324651482253  1.0000
  N   N18       1.0  0.05773628168913798  0.7174386471817583  0.42314604021950697  1.0000
  N   N19       1.0  0.7174386026307145  0.057737195521234214  0.9231461746877158  1.0000
  N   N20       1.0  0.9422648315553203  0.28256387091727225  0.5768544484087741  1.0000
