data_image0
_chemical_formula_structural       Zn2H22C40N6O8
_chemical_formula_sum              "Zn2 H22 C40 N6 O8"
_cell_length_a       13.975257319289373
_cell_length_b       15.31282318814893
_cell_length_c       17.16623778863369
_cell_angle_alpha    88.66054053767444
_cell_angle_beta     94.72521220266503
_cell_angle_gamma    89.99321563352525

_space_group_name_H-M_alt    "P 1"
_space_group_IT_number       1

loop_
  _space_group_symop_operation_xyz
  'x, y, z'

loop_
  _atom_site_type_symbol
  _atom_site_label
  _atom_site_symmetry_multiplicity
  _atom_site_fract_x
  _atom_site_fract_y
  _atom_site_fract_z
  _atom_site_occupancy
  Zn  Zn1       1.0  0.6003512786029078  0.49945818169108264  0.5037244869121268  1.0000
  Zn  Zn2       1.0  0.3996390011242709  0.49801706714703203  0.49862668291326173  1.0000
  H   H1        1.0  0.6327870464558316  0.5485690477578444  0.2591167673561685  1.0000
  H   H2        1.0  0.36794107295230555  0.503522098259957  0.7422669351337632  1.0000
  H   H3        1.0  0.2527719226237224  0.3764599045580753  0.5539115469885658  1.0000
  H   H4        1.0  0.7403883754384992  0.5638375571890607  0.3954006210294452  1.0000
  H   H5        1.0  0.24218631575735833  0.6202802200071036  0.44512905373166933  1.0000
  H   H6        1.0  0.7647201852440518  0.4359949362508076  0.6109259729500637  1.0000
  H   H7        1.0  0.0628407346367794  0.6269336709511111  0.4434282775383878  1.0000
  H   H8        1.0  0.9444951402975191  0.43291704122463426  0.6145111046670308  1.0000
  H   H9        1.0  0.6245645286285824  0.560471986153381  0.11224442915283112  1.0000
  H   H10       1.0  0.3726719349067338  0.5189020201429813  0.8883924445982815  1.0000
  H   H11       1.0  0.6801582671721819  0.5346423241456792  0.9000230983842386  1.0000
  H   H12       1.0  0.32026065999079384  0.5171907241184928  0.10203939161311129  1.0000
  H   H13       1.0  0.6753239143910506  0.5168594792528438  0.7537355157618748  1.0000
  H   H14       1.0  0.32942016545555225  0.5029479621983912  0.24952537169634328  1.0000
  H   H15       1.0  0.6268803092799616  0.2294580502708642  0.42946547632413257  1.0000
  H   H16       1.0  0.35651462891368624  0.7735463337254134  0.42759431131784  1.0000
  H   H17       1.0  0.3631946786215323  0.2139867937680648  0.5401467042220105  1.0000
  H   H18       1.0  0.6406812323726143  0.7795451543652306  0.5419161944634965  1.0000
  H   H19       1.0  0.36434495400364136  0.051667883333479415  0.5305233474927391  1.0000
  H   H20       1.0  0.6404915356326837  0.9426680899107257  0.5312995081091643  1.0000
  H   H21       1.0  0.073871954247835  0.37149236595688256  0.5574640696904325  1.0000
  H   H22       1.0  0.9190313089428203  0.5667077507134624  0.38879371084860276  1.0000
  C   C1        1.0  0.4962854455910772  0.3286440948061512  0.4952798351910205  1.0000
  C   C2        1.0  0.4967827605013184  0.6694663987987257  0.4962345010340171  1.0000
  C   C3        1.0  0.5697206091658344  0.19012938326157783  0.4516716692617493  1.0000
  C   C4        1.0  0.4183596523859237  0.8109902649365426  0.4505098174297685  1.0000
  C   C5        1.0  0.4956734269686364  0.23124374179618462  0.4866395328478177  1.0000
  C   C6        1.0  0.4980332959728955  0.7671417712498683  0.4868544877856209  1.0000
  C   C7        1.0  0.42089450181756394  0.18095518416188133  0.5135317693252404  1.0000
  C   C8        1.0  0.5787549791049856  0.8149740189700909  0.5143632794052024  1.0000
  C   C9        1.0  0.42148897755703985  0.0905761520356876  0.5075874815198418  1.0000
  C   C10       1.0  0.5784018559047155  0.9057008829965201  0.5078950133545845  1.0000
  C   C11       1.0  0.49598582611849207  0.04770519336079102  0.4739588174555464  1.0000
  C   C12       1.0  0.4980529268357543  0.9512911253429621  0.4735950629277852  1.0000
  C   C13       1.0  0.1079189886071035  0.4285650337410943  0.532669644792044  1.0000
  C   C14       1.0  0.8883529078146637  0.537783002587318  0.4397254687170928  1.0000
  C   C15       1.0  0.20708448773035573  0.43036015609693123  0.5307326758059786  1.0000
  C   C16       1.0  0.789266633333142  0.5363232703681433  0.4424895632566219  1.0000
  C   C17       1.0  0.20100390350678768  0.5667443137829979  0.4686936276049635  1.0000
  C   C18       1.0  0.8027970101325651  0.46355873565620004  0.5630986452384334  1.0000
  C   C19       1.0  0.10156505088449562  0.5695051374634303  0.46790597525174604  1.0000
  C   C20       1.0  0.9023193480392919  0.4619646201477111  0.5642603301949833  1.0000
  C   C21       1.0  0.0528348504258105  0.49932210905614494  0.5006573027792455  1.0000
  C   C22       1.0  0.9472585102623514  0.4997534368618447  0.5015352469528835  1.0000
  C   C23       1.0  0.5168658388094087  0.4997280172806242  0.6530139797102733  1.0000
  C   C24       1.0  0.4888490269999934  0.5114621528959162  0.3494063514474419  1.0000
  C   C25       1.0  0.5213202683134526  0.5088506407398726  0.739885473204076  1.0000
  C   C26       1.0  0.48189339484160604  0.5234718663535035  0.26236899018312704  1.0000
  C   C27       1.0  0.435775311706209  0.5101206168924862  0.777726773939186  1.0000
  C   C28       1.0  0.564951101182551  0.5413740487025365  0.22383305663164066  1.0000
  C   C29       1.0  0.4380527396044727  0.5190556202812218  0.857970794881247  1.0000
  C   C30       1.0  0.5606863841218158  0.5481724125050819  0.1430368521105052  1.0000
  C   C31       1.0  0.5269864531619605  0.5280451759605713  0.90190964747962  1.0000
  C   C32       1.0  0.4719463594965418  0.5374668830894438  0.09922196095054399  1.0000
  C   C33       1.0  0.6125159170968927  0.5275797257019267  0.8643163070932758  1.0000
  C   C34       1.0  0.3880721846020876  0.5237324372281479  0.13757251905961707  1.0000
  C   C35       1.0  0.6096909863359131  0.5176267862049927  0.7838169217332833  1.0000
  C   C36       1.0  0.3931735676659898  0.5159549919770542  0.21870475636615788  1.0000
  C   C37       1.0  0.5700189958362785  0.09900338881892883  0.44457484556647836  1.0000
  C   C38       1.0  0.41788646268214086  0.9024025224077832  0.4432170454308491  1.0000
  C   C39       1.0  0.6448619962833462  0.05919596790814552  0.40579910776686745  1.0000
  C   C40       1.0  0.33597783436774625  0.9444883293734564  0.4034004819426115  1.0000
  N   N1        1.0  0.5382094576467367  0.5347184916037977  0.9840438012373623  1.0000
  N   N2        1.0  0.46013698984454976  0.5363354540864906  0.01677814052970209  1.0000
  N   N3        1.0  0.2527256745403363  0.4983199916287477  0.4994054104349317  1.0000
  N   N4        1.0  0.7473748204610686  0.49991064160554555  0.503149134946625  1.0000
  N   N5        1.0  0.7064931472401171  0.027996800737113907  0.3735914220243187  1.0000
  N   N6        1.0  0.2680048497618444  0.9766389313341222  0.3702518104546257  1.0000
  O   O1        1.0  0.5746539906782289  0.3679606165218204  0.4851889431506963  1.0000
  O   O2        1.0  0.4160819287508275  0.6319721855181655  0.4816401045429685  1.0000
  O   O3        1.0  0.4182410309163346  0.3639286608462485  0.5119958118967602  1.0000
  O   O4        1.0  0.5761482770094944  0.6322590298855176  0.5179536735380522  1.0000
  O   O5        1.0  0.5947406923684896  0.48248593445066495  0.622434477996606  1.0000
  O   O6        1.0  0.41294567774766483  0.48877002448691803  0.3808885951104628  1.0000
  O   O7        1.0  0.4348605978124382  0.5108394404163831  0.6158664483927296  1.0000
  O   O8        1.0  0.5707944258271596  0.5244661597606566  0.3858651485824609  1.0000
