data_image0
_chemical_formula_structural       Hg4H24C40N48
_chemical_formula_sum              "Hg4 H24 C40 N48"
_cell_length_a       9.369941922
_cell_length_b       10.317255336913968
_cell_length_c       13.445
_cell_angle_alpha    93.31334055699392
_cell_angle_beta     90.0
_cell_angle_gamma    90.0

_space_group_name_H-M_alt    "P 1"
_space_group_IT_number       1

loop_
  _space_group_symop_operation_xyz
  'x, y, z'

loop_
  _atom_site_type_symbol
  _atom_site_label
  _atom_site_symmetry_multiplicity
  _atom_site_fract_x
  _atom_site_fract_y
  _atom_site_fract_z
  _atom_site_occupancy
  Hg  Hg1       1.0  0.9145670348158247  0.24926192116987514  0.7625016833659757  1.0000
  Hg  Hg2       1.0  0.414568204620295  0.7507381881504215  0.7374983958595963  1.0000
  Hg  Hg3       1.0  0.0854316928176999  0.7507381881504215  0.2374983958595962  1.0000
  Hg  Hg4       1.0  0.5854326574981741  0.24926192116987514  0.2625016833659757  1.0000
  H   H1        1.0  0.2294176439826998  0.0349310378662082  0.4395879072376871  1.0000
  H   H2        1.0  0.729418608663174  0.9650690714540814  0.0604121719878847  1.0000
  H   H3        1.0  0.7705810836508177  0.965068100581135  0.5604121289285686  1.0000
  H   H4        1.0  0.2705822534552951  0.0349310378662082  0.93958790723768  1.0000
  H   H5        1.0  0.9861854082898772  0.3486501850561439  0.3601777950166749  1.0000
  H   H6        1.0  0.4861855108518753  0.651349924264153  0.139822284208897  1.0000
  H   H7        1.0  0.013815453828591699  0.651349924264153  0.6398222842088969  1.0000
  H   H8        1.0  0.5138142840241215  0.3486501850561439  0.860177795016675  1.0000
  H   H9        1.0  0.878443011548903  0.367026868252772  0.5338622899639986  1.0000
  H   H10       1.0  0.3784431141109081  0.6329732410675177  0.9661377892615661  1.0000
  H   H11       1.0  0.1215567833270939  0.6329732410675177  0.4661377892615661  1.0000
  H   H12       1.0  0.6215566807650887  0.367026868252772  0.0338622899639986  1.0000
  H   H13       1.0  0.2453387672129068  0.47716657918677186  0.0644131579275324  1.0000
  H   H14       1.0  0.7453386646509015  0.5228335301335179  0.4355869212980394  1.0000
  H   H15       1.0  0.7546620949055621  0.5228325592605714  0.9355868782387233  1.0000
  H   H16       1.0  0.2546611302250952  0.47716657918677186  0.5644131579275324  1.0000
  H   H17       1.0  0.0392627833835562  0.1737697532007019  0.19317062682062414  1.0000
  H   H18       1.0  0.5392626808215581  0.8262303561195948  0.3068294524049406  1.0000
  H   H19       1.0  0.9607370114924406  0.8262313269925413  0.8068294954642568  1.0000
  H   H20       1.0  0.4607371140544386  0.1737687823277483  0.6931698399903895  1.0000
  H   H21       1.0  0.9092767138711864  0.1181076652342341  0.030229655551273996  1.0000
  H   H22       1.0  0.4092778836756565  0.8818924440860626  0.46977042367429783  1.0000
  H   H23       1.0  0.0907220137623383  0.8818914732131161  0.9697703806149818  1.0000
  H   H24       1.0  0.5907229784428125  0.1181076652342341  0.5302289117803554  1.0000
  C   C1        1.0  0.1493242980209786  0.0425213225889109  0.6358739685519622  1.0000
  C   C2        1.0  0.6493241954589806  0.9574797576043322  0.8641261537329257  1.0000
  C   C3        1.0  0.8506754968550182  0.9574797576043322  0.3641261537329258  1.0000
  C   C4        1.0  0.3506755994170163  0.0425203517159645  0.1358739254926391  1.0000
  C   C5        1.0  0.0992215328269168  0.1249542612772672  0.558590580212261  1.0000
  C   C6        1.0  0.5992224975073838  0.8750458480430225  0.9414094990133036  1.0000
  C   C7        1.0  0.9007782620490801  0.8750458480430225  0.4414094990133037  1.0000
  C   C8        1.0  0.4007772973686129  0.1249542612772672  0.058590580212268206  1.0000
  C   C9        1.0  0.1525238909586477  0.1109610694496581  0.4608565412178436  1.0000
  C   C10       1.0  0.6525248556391219  0.889038068997685  0.0391427511774936  1.0000
  C   C11       1.0  0.8474748366748699  0.889038068997685  0.5391427511774936  1.0000
  C   C12       1.0  0.3474760064793472  0.11096204032260458  0.9608565842771597  1.0000
  C   C13       1.0  0.0172018141992467  0.2818288834029588  0.4163692707327655  1.0000
  C   C14       1.0  0.5172006443947765  0.7181721967902845  0.0836308515521225  1.0000
  C   C15       1.0  0.9827990479192222  0.7181721967902845  0.5836308515521225  1.0000
  C   C16       1.0  0.4827980832387481  0.28182791253001227  0.916369971444368  1.0000
  C   C17       1.0  0.9592620823930885  0.2943385813630499  0.5122346143849299  1.0000
  C   C18       1.0  0.4592621849550866  0.7056615279572398  0.987765464840642  1.0000
  C   C19       1.0  0.0407377124829083  0.7056624988301934  0.4877655078999581  1.0000
  C   C20       1.0  0.5407376099209102  0.2943385813630499  0.012234614384929902  1.0000
  C   C21       1.0  0.12819716600159836  0.4354384597979717  0.8774401181863851  1.0000
  C   C22       1.0  0.6281970634396004  0.5645616495223251  0.6225592172682611  1.0000
  C   C23       1.0  0.8718026288743913  0.5645606786493715  0.1225591742089449  1.0000
  C   C24       1.0  0.3718027314363965  0.4354384597979717  0.37744011818638507  1.0000
  C   C25       1.0  0.10274770196168959  0.3633016287438195  0.9658026868368594  1.0000
  C   C26       1.0  0.6027486666421638  0.6366975097035237  0.5341988368712336  1.0000
  C   C27       1.0  0.8972510256718351  0.6366975097035237  0.03419883687123361  1.0000
  C   C28       1.0  0.3972521954763053  0.3633016287438195  0.4658026868368594  1.0000
  C   C29       1.0  0.1708847304848859  0.3958637366121565  0.05671282573489119  1.0000
  C   C30       1.0  0.6708846279228808  0.6041354018351868  0.44328646666044585  1.0000
  C   C31       1.0  0.8291161316335831  0.6041363727081402  0.943286509719762  1.0000
  C   C32       1.0  0.32911623419558816  0.3958637366121565  0.5567128257348841  1.0000
  C   C33       1.0  0.0566844495324901  0.22923281221243028  0.1276669211718158  1.0000
  C   C34       1.0  0.5566854142129642  0.770768267980813  0.3723332011130722  1.0000
  C   C35       1.0  0.9433142781010275  0.770768267980813  0.8723332011130723  1.0000
  C   C36       1.0  0.443316515147977  0.22923281221243028  0.6276661774008971  1.0000
  C   C37       1.0  0.9859463459756554  0.197491091986798  0.0377942830526479  1.0000
  C   C38       1.0  0.4859475157801327  0.8025099882064453  0.4622058392322401  1.0000
  C   C39       1.0  0.0140534489003414  0.8025099882064453  0.9622058392322402  1.0000
  C   C40       1.0  0.5140533463383434  0.197491091986798  0.5377935392817292  1.0000
  N   N1        1.0  0.10664847320491329  0.05342131319798679  0.7321952534385474  1.0000
  N   N2        1.0  0.6066483706429082  0.94657879612231  0.7678048257870244  1.0000
  N   N3        1.0  0.8933513216710836  0.94657879612231  0.2678048257870246  1.0000
  N   N4        1.0  0.3933514242330887  0.05342131319798679  0.23219525343854738  1.0000
  N   N5        1.0  0.1764973586567322  0.9628127627183998  0.7784660627163831  1.0000
  N   N6        1.0  0.6764961888522549  0.0371873466018897  0.7215340165091888  1.0000
  N   N7        1.0  0.8235035034617367  0.0371873466018897  0.2215340165091888  1.0000
  N   N8        1.0  0.3235025387812627  0.9628127627183998  0.2784660627163831  1.0000
  N   N9        1.0  0.2585288169516176  0.8997633024757689  0.7103369101546733  1.0000
  N   N10       1.0  0.7585287143896124  0.1002368068445207  0.7896631690708986  1.0000
  N   N11       1.0  0.7414709779243793  0.1002368068445207  0.2896631690708986  1.0000
  N   N12       1.0  0.24147001324391226  0.8997633024757689  0.21033691015467326  1.0000
  N   N13       1.0  0.2452768671493999  0.9466787960361529  0.62039460860953  1.0000
  N   N14       1.0  0.7452767645874019  0.0533203424111903  0.8796054275567259  1.0000
  N   N15       1.0  0.754722927726597  0.0533203424111903  0.3796054275567258  1.0000
  N   N16       1.0  0.254723030288595  0.9466787960361529  0.12039460860952998  1.0000
  N   N17       1.0  0.0001205983995831  0.2160396196955716  0.5830289803840927  1.0000
  N   N18       1.0  0.5001204958375851  0.783960489624718  0.9169710988414791  1.0000
  N   N19       1.0  0.9998791964764138  0.783960489624718  0.4169710988414792  1.0000
  N   N20       1.0  0.4998792990384118  0.2160405905685252  0.0830290234434088  1.0000
  N   N21       1.0  0.11214583918954449  0.1887464393266143  0.3899836140213395  1.0000
  N   N22       1.0  0.6121457366275465  0.8112546408666359  0.1100165082635485  1.0000
  N   N23       1.0  0.8878539556864524  0.8112536699936825  0.6100164652042322  1.0000
  N   N24       1.0  0.3878540582484504  0.1887464393266143  0.8899836140213395  1.0000
  N   N25       1.0  0.21736420747902227  0.5358762373431318  0.8711352574342826  1.0000
  N   N26       1.0  0.7173641049170243  0.46412290110421134  0.6288647787319733  1.0000
  N   N27       1.0  0.7826366546394468  0.46412290110421134  0.1288647787319732  1.0000
  N   N28       1.0  0.28263568995897254  0.5358772082160854  0.37113530049359883  1.0000
  N   N29       1.0  0.2032979516689934  0.5725228077119056  0.7771183282083599  1.0000
  N   N30       1.0  0.7032978491069883  0.4274763307354376  0.7228809641869773  1.0000
  N   N31       1.0  0.7967018432070034  0.4274763307354376  0.222881707957896  1.0000
  N   N32       1.0  0.2967019457690085  0.572523778584852  0.2771183712676759  1.0000
  N   N33       1.0  0.10992490760072118  0.49843355115540783  0.7272358813676121  1.0000
  N   N34       1.0  0.6099248050387232  0.5015655872919424  0.7727641547986436  1.0000
  N   N35       1.0  0.8900748872752756  0.5015655872919424  0.2727641547986437  1.0000
  N   N36       1.0  0.3900749898372737  0.49843355115540783  0.22723588136761214  1.0000
  N   N37       1.0  0.0614550233921918  0.4117384802167692  0.789381931386515  1.0000
  N   N38       1.0  0.5614549208301937  0.5882616291035276  0.710617404068131  1.0000
  N   N39       1.0  0.938544771483805  0.5882616291035276  0.210617404068131  1.0000
  N   N40       1.0  0.43854487404580306  0.4117384802167692  0.2893819313865151  1.0000
  N   N41       1.0  0.0094525665940424  0.2639648211238992  0.9570325389959821  1.0000
  N   N42       1.0  0.5094524640320373  0.7360352881963904  0.5429667964586713  1.0000
  N   N43       1.0  0.9905472282819544  0.7360352881963904  0.042967540229589894  1.0000
  N   N44       1.0  0.4905473308439595  0.2639638502509527  0.4570324959366658  1.0000
  N   N45       1.0  0.1486071110783129  0.328637580938846  0.1372864944701675  1.0000
  N   N46       1.0  0.6486080757587871  0.6713625283814508  0.36271358475540444  1.0000
  N   N47       1.0  0.851392683797684  0.6713625283814508  0.8627135847554044  1.0000
  N   N48       1.0  0.35139278635968196  0.328637580938846  0.6372864944701675  1.0000
