data_image0
_chemical_formula_structural       Cu8H96C76N24O24
_chemical_formula_sum              "Cu8 H96 C76 N24 O24"
_cell_length_a       13.49183406945099
_cell_length_b       13.49187295746623
_cell_length_c       16.210322064034873
_cell_angle_alpha    89.99979328816056
_cell_angle_beta     90.00011128370413
_cell_angle_gamma    89.99594560021268

_space_group_name_H-M_alt    "P 1"
_space_group_IT_number       1

loop_
  _space_group_symop_operation_xyz
  'x, y, z'

loop_
  _atom_site_type_symbol
  _atom_site_label
  _atom_site_symmetry_multiplicity
  _atom_site_fract_x
  _atom_site_fract_y
  _atom_site_fract_z
  _atom_site_occupancy
  Cu  Cu1       1.0  0.3014732469378956  0.028169196712724404  0.0292692030242705  1.0000
  Cu  Cu2       1.0  0.471857262588543  0.8014537158872985  0.7792304648141055  1.0000
  Cu  Cu3       1.0  0.6985287922877391  0.9718391914718156  0.5292520151279092  1.0000
  Cu  Cu4       1.0  0.5281409225425976  0.19855209413975672  0.279257377567653  1.0000
  Cu  Cu5       1.0  0.8014876443400637  0.47183151643452004  0.22076112752319696  1.0000
  Cu  Cu6       1.0  0.1985118844182736  0.5281745499752546  0.720741377213713  1.0000
  Cu  Cu7       1.0  0.028137141443423306  0.3014287100677678  0.9707526505349904  1.0000
  Cu  Cu8       1.0  0.971854828021151  0.6985547661979723  0.4707485567845211  1.0000
  H   H1        1.0  0.3752902459859726  0.0407775080085599  0.19930411270033943  1.0000
  H   H2        1.0  0.4592375888070919  0.8753293741768005  0.9492602796986989  1.0000
  H   H3        1.0  0.6247188674760552  0.9592234638934728  0.6992510652033772  1.0000
  H   H4        1.0  0.5407580345140631  0.12468680831948123  0.4492960682903515  1.0000
  H   H5        1.0  0.8753206975181345  0.4592150163642614  0.0507152312122869  1.0000
  H   H6        1.0  0.12468435786895782  0.5407777128020613  0.5506829882524826  1.0000
  H   H7        1.0  0.040776046923547006  0.37530273763552924  0.8007559284595871  1.0000
  H   H8        1.0  0.9592221883080826  0.6247289196439001  0.3007470987300849  1.0000
  H   H9        1.0  0.30375785560304547  0.6549430957426097  0.2015813222395764  1.0000
  H   H10       1.0  0.8450401560863485  0.8037244725910286  0.9515598450641178  1.0000
  H   H11       1.0  0.6962571923096095  0.3450719484543114  0.7015573549582684  1.0000
  H   H12       1.0  0.15494732147720214  0.19623833469100302  0.45157815163531717  1.0000
  H   H13       1.0  0.8037452394338019  0.8450179552867214  0.0484148323980307  1.0000
  H   H14       1.0  0.19624054014686013  0.1549607019688537  0.5484399856698445  1.0000
  H   H15       1.0  0.6549382192139391  0.30375795576076575  0.7984148051298021  1.0000
  H   H16       1.0  0.34507335350396323  0.696228498839247  0.2984368648294121  1.0000
  H   H17       1.0  0.23994983123486696  0.08301749907477782  0.8083954805567117  1.0000
  H   H18       1.0  0.41693484172311207  0.7399783927068668  0.5583477942240691  1.0000
  H   H19       1.0  0.7600728821572106  0.9169911470774963  0.3083749793151753  1.0000
  H   H20       1.0  0.5830294650975959  0.2600521048540969  0.058370293506463604  1.0000
  H   H21       1.0  0.7399859789656774  0.4169423859936929  0.4416518978590247  1.0000
  H   H22       1.0  0.2600666999442184  0.5830130506439489  0.9416265304918383  1.0000
  H   H23       1.0  0.08303085516152461  0.23995887815486586  0.1916325464692576  1.0000
  H   H24       1.0  0.916984168652249  0.7600702922118219  0.6916076981701951  1.0000
  H   H25       1.0  0.4266069227824262  0.975561823818879  0.34402043353143347  1.0000
  H   H26       1.0  0.5244290061009808  0.9267154328995416  0.0939342509175631  1.0000
  H   H27       1.0  0.5733602862595434  0.0244355504419644  0.8439417025452585  1.0000
  H   H28       1.0  0.47554798572453905  0.07330527270825372  0.5939860002149189  1.0000
  H   H29       1.0  0.9267179028548754  0.5244076084758335  0.9060288418242808  1.0000
  H   H30       1.0  0.07330207912264801  0.47555095024875993  0.4059980718474563  1.0000
  H   H31       1.0  0.9755921089743822  0.42662163449031726  0.6560327590084399  1.0000
  H   H32       1.0  0.024431724880294305  0.5734025032599419  0.1560374005944283  1.0000
  H   H33       1.0  0.3929123849224681  0.8531722358844863  0.3729348813032018  1.0000
  H   H34       1.0  0.6468116693833253  0.8929433036322794  0.1229023607452859  1.0000
  H   H35       1.0  0.6070408099015696  0.14683168275325192  0.8728749641502489  1.0000
  H   H36       1.0  0.35315797971082935  0.10706393392705142  0.6229303733423779  1.0000
  H   H37       1.0  0.8929523756557601  0.6468032892536542  0.877076093174253  1.0000
  H   H38       1.0  0.10705938461155282  0.3531546554614806  0.3770642469681889  1.0000
  H   H39       1.0  0.8532014559561036  0.3929324112384337  0.627097444528644  1.0000
  H   H40       1.0  0.14682972222264823  0.607062205585301  0.1271206874900415  1.0000
  H   H41       1.0  0.3036987100920925  0.9498446918358496  0.3761024015954462  1.0000
  H   H42       1.0  0.5500874302046341  0.803776000795935  0.1260590468838885  1.0000
  H   H43       1.0  0.6962537512910174  0.05015328340045501  0.8760632707025806  1.0000
  H   H44       1.0  0.44986814337414677  0.1962430823976149  0.626094351230627  1.0000
  H   H45       1.0  0.8037737009125224  0.5500852619633535  0.8739115155734468  1.0000
  H   H46       1.0  0.1962410169676758  0.44986231991050124  0.3738964396042022  1.0000
  H   H47       1.0  0.9498816060427656  0.30370713744564887  0.6239397893725284  1.0000
  H   H48       1.0  0.0501806942889971  0.6962949040552148  0.12393300296866981  1.0000
  H   H49       1.0  0.28714350982934894  0.811591019155678  0.00041172360278100004  1.0000
  H   H50       1.0  0.6883864896736825  0.7870767268949808  0.750370034923499  1.0000
  H   H51       1.0  0.712813987711762  0.1884701214340368  0.5003734422890959  1.0000
  H   H52       1.0  0.311598287680532  0.21286991519587423  0.2503873074068537  1.0000
  H   H53       1.0  0.7870624078477917  0.6883534214251128  0.249611547785733  1.0000
  H   H54       1.0  0.21285788287794827  0.3116317680229983  0.7496152881388413  1.0000
  H   H55       1.0  0.8115448868724188  0.287096020944908  0.9996003464404737  1.0000
  H   H56       1.0  0.18848124969620986  0.7127761495240749  0.499632594981776  1.0000
  H   H57       1.0  0.18566904212416094  0.7646773494712137  0.058260038851024404  1.0000
  H   H58       1.0  0.7353281690263103  0.6856390595609483  0.8082530949930629  1.0000
  H   H59       1.0  0.8142997108192986  0.23537316054093793  0.5582020391341231  1.0000
  H   H60       1.0  0.26468194504683856  0.31433549301264213  0.3082551862912979  1.0000
  H   H61       1.0  0.6856341413436907  0.7353083647769979  0.1917149536692193  1.0000
  H   H62       1.0  0.31432974126202146  0.26470450080375235  0.691745521001387  1.0000
  H   H63       1.0  0.7646622695739753  0.1856359853979512  0.9417416463363749  1.0000
  H   H64       1.0  0.23538151704180882  0.8142727561808911  0.4418088309590757  1.0000
  H   H65       1.0  0.3015153565034084  0.703509756335791  0.061464969921289  1.0000
  H   H66       1.0  0.7964699491462996  0.8014829253895857  0.8114207063679332  1.0000
  H   H67       1.0  0.6984467338432694  0.29652813957914503  0.5614547219104153  1.0000
  H   H68       1.0  0.20351497178903344  0.19849902598582503  0.3114557395395464  1.0000
  H   H69       1.0  0.8014820502319253  0.7964499716718763  0.1885607918987375  1.0000
  H   H70       1.0  0.1984825670050441  0.20353548387912923  0.6885524924492614  1.0000
  H   H71       1.0  0.7034826447448668  0.3014708517219375  0.9385360606918455  1.0000
  H   H72       1.0  0.29653519325700023  0.6984186341047617  0.4385407636152934  1.0000
  H   H73       1.0  0.3348409761010132  0.23992112721150965  0.8383780710088402  1.0000
  H   H74       1.0  0.26003661654080196  0.8348750769897464  0.5884184919293389  1.0000
  H   H75       1.0  0.6651002761004465  0.7601288969331467  0.3383190204326851  1.0000
  H   H76       1.0  0.7399285026249204  0.1651597358676327  0.08842610013950748  1.0000
  H   H77       1.0  0.8348614728380072  0.2600350086358318  0.4115682881803266  1.0000
  H   H78       1.0  0.16519706382037921  0.7399339009167039  0.9116015256469154  1.0000
  H   H79       1.0  0.23991124635013256  0.3348868398600118  0.1616380614514696  1.0000
  H   H80       1.0  0.7601289084133429  0.6650965074384346  0.6616514928354604  1.0000
  H   H81       1.0  0.4105534629815538  0.15361253981187423  0.782703856523952  1.0000
  H   H82       1.0  0.34631420831941295  0.9106199691373718  0.5327323243711604  1.0000
  H   H83       1.0  0.5894402804538289  0.8464695975835499  0.28264689688862893  1.0000
  H   H84       1.0  0.6536537432941787  0.08942101725119761  0.032735702014179  1.0000
  H   H85       1.0  0.9106183864076202  0.346310071721611  0.4672543440674772  1.0000
  H   H86       1.0  0.08944695336285241  0.653649699216466  0.9672895678917898  1.0000
  H   H87       1.0  0.15359494246523306  0.4105938644998873  0.21730056231547223  1.0000
  H   H88       1.0  0.8464646135236294  0.5894388975605694  0.7173384143910013  1.0000
  H   H89       1.0  0.4261928677359848  0.1693056396474262  0.8917596678134316  1.0000
  H   H90       1.0  0.330656908109063  0.9262089277120611  0.6418035332050493  1.0000
  H   H91       1.0  0.5737751933559282  0.8307589732985863  0.3916848400682227  1.0000
  H   H92       1.0  0.6693120439250678  0.07381749791584012  0.141810683391796  1.0000
  H   H93       1.0  0.9262015697755573  0.3306625620133374  0.3581775832435595  1.0000
  H   H94       1.0  0.0738383095131638  0.66933474736215  0.858212735759956  1.0000
  H   H95       1.0  0.1692889392507126  0.4262103570519501  0.1082484308081177  1.0000
  H   H96       1.0  0.8307725834874946  0.5737702587410568  0.6082893888231595  1.0000
  C   C1        1.0  0.3075442400907066  0.8119070570896197  0.21404043755725163  1.0000
  C   C2        1.0  0.6880850973390623  0.8075093107910476  0.9640011701220743  1.0000
  C   C3        1.0  0.6924649082087201  0.18809755611939494  0.713997806631383  1.0000
  C   C4        1.0  0.31190018560159427  0.19246974812205056  0.4640271401681488  1.0000
  C   C5        1.0  0.8075226889532277  0.6880685500277295  0.035970528453709995  1.0000
  C   C6        1.0  0.19246083748566184  0.31191090310375813  0.5359711510316033  1.0000
  C   C7        1.0  0.8119093164856966  0.3075376708671058  0.7859808715467267  1.0000
  C   C8        1.0  0.1881103795737857  0.6924555086520031  0.2859965239554398  1.0000
  C   C9        1.0  0.34982294100399974  0.986100118415969  0.8621038327185815  1.0000
  C   C10       1.0  0.5138615001820811  0.8498884214967435  0.6120042608323004  1.0000
  C   C11       1.0  0.6501910049085781  0.0139253399076367  0.3620753505955818  1.0000
  C   C12       1.0  0.48611256906264816  0.15015147586876762  0.1120503741321599  1.0000
  C   C13       1.0  0.849894896257368  0.513865854372213  0.3879811001887816  1.0000
  C   C14       1.0  0.15013764255577663  0.4861090891240496  0.8879583133134403  1.0000
  C   C15       1.0  0.9860812957785898  0.3498280204115359  0.1379197946979147  1.0000
  C   C16       1.0  0.013929894056154503  0.650219174037396  0.6379018561832979  1.0000
  C   C17       1.0  0.17822387140444823  0.16416821564586576  0.9540574385674745  1.0000
  C   C18       1.0  0.3359111535274978  0.6781526081375662  0.7040111829029811  1.0000
  C   C19       1.0  0.8217547169976598  0.8358160755271057  0.4540280230282008  1.0000
  C   C20       1.0  0.6640868530512593  0.3218564964383078  0.20402190660882266  1.0000
  C   C21       1.0  0.6781445977172355  0.3359198196173097  0.2959886076341718  1.0000
  C   C22       1.0  0.3218602980350839  0.6640799872879769  0.7959797540172318  1.0000
  C   C23       1.0  0.16418269322004872  0.17823694865899145  0.0459736595181042  1.0000
  C   C24       1.0  0.8358082679043123  0.821768401928303  0.5459608367782067  1.0000
  C   C25       1.0  0.29642090014153416  0.8389631811958652  0.13021355311799712  1.0000
  C   C26       1.0  0.6610223549992043  0.7963807889735722  0.8801823492716495  1.0000
  C   C27       1.0  0.7035858253007066  0.1610543997673091  0.6301728708530305  1.0000
  C   C28       1.0  0.3389693995819841  0.20360530784832062  0.3802101799799686  1.0000
  C   C29       1.0  0.7963755210101057  0.6610058020251801  0.1197912262877594  1.0000
  C   C30       1.0  0.20359041535188285  0.33898366088507004  0.6197887017655788  1.0000
  C   C31       1.0  0.8389506109619022  0.296400196621697  0.8698065112307063  1.0000
  C   C32       1.0  0.16106261365816724  0.7035807566475897  0.3698214706991152  1.0000
  C   C33       1.0  0.2895503187454623  0.71046654698516  0.250010864711868  1.0000
  C   C34       1.0  0.7895323254076915  0.7895118472814889  0.9999863737598462  1.0000
  C   C35       1.0  0.7104759621750603  0.2895401314384004  0.7499895524407378  1.0000
  C   C36       1.0  0.21045304319941494  0.2104581596438777  0.5000047263881768  1.0000
  C   C37       1.0  0.29539814858611635  0.08574299589526652  0.8582489409535157  1.0000
  C   C38       1.0  0.414200174676708  0.7954332456821477  0.608211617238176  1.0000
  C   C39       1.0  0.7046180119147181  0.9142780321134796  0.3582271258296005  1.0000
  C   C40       1.0  0.5857657327442426  0.2045985156089358  0.1082274996988133  1.0000
  C   C41       1.0  0.7954262182340273  0.41420555395482955  0.3917837202595322  1.0000
  C   C42       1.0  0.20460632988402241  0.5857619609596868  0.8917798477592314  1.0000
  C   C43       1.0  0.08573936269333872  0.2954056040838183  0.1417710263797289  1.0000
  C   C44       1.0  0.9142718372050782  0.704615631919218  0.6417617606609768  1.0000
  C   C45       1.0  0.33980370970516566  0.8982785653310121  0.2541098658464875  1.0000
  C   C46       1.0  0.6017350309664451  0.8397850081807265  0.0040886015708068  1.0000
  C   C47       1.0  0.6602033100733778  0.10172587229500613  0.7540649724732305  1.0000
  C   C48       1.0  0.3982536074463142  0.1602160788899241  0.504121463183111  1.0000
  C   C49       1.0  0.8397915842671254  0.6017155435425466  0.9958806667145906  1.0000
  C   C50       1.0  0.1602063746480837  0.39825818693766024  0.49586877115184086  1.0000
  C   C51       1.0  0.8982870432103739  0.3398059817914217  0.7459274006384646  1.0000
  C   C52       1.0  0.10173329812289471  0.660212573677143  0.2459325243116126  1.0000
  C   C53       1.0  0.3671707053442006  0.9201298204715656  0.3412796223351009  1.0000
  C   C54       1.0  0.5798416616067074  0.8672295205266638  0.0912361025205755  1.0000
  C   C55       1.0  0.6328009442192696  0.07987127154613921  0.8412174773479606  1.0000
  C   C56       1.0  0.42012939465956833  0.132780820527536  0.5912764830836678  1.0000
  C   C57       1.0  0.8672362631432409  0.579828995638124  0.9087306943647917  1.0000
  C   C58       1.0  0.13277334863382612  0.4201288104007477  0.40870943685671796  1.0000
  C   C59       1.0  0.9201584609094199  0.36717965619095594  0.6587668635924828  1.0000
  C   C60       1.0  0.07987205063214022  0.6328303867824658  0.15877265066448132  1.0000
  C   C61       1.0  0.2660564994686183  0.7767743806932831  0.0588664885511534  1.0000
  C   C62       1.0  0.7232068842315942  0.7660234341698599  0.8088248238912001  1.0000
  C   C63       1.0  0.7339152201665158  0.22326278514459125  0.558829371235511  1.0000
  C   C64       1.0  0.27678470162644697  0.23394741057296645  0.3088475304927556  1.0000
  C   C65       1.0  0.7660187482859585  0.7231856330826787  0.19115428175474142  1.0000
  C   C66       1.0  0.23393772188032363  0.2768042584817323  0.6911581589983911  1.0000
  C   C67       1.0  0.7767548892139545  0.26602172941608165  0.9411419186842239  1.0000
  C   C68       1.0  0.22327407218028844  0.7338862742101997  0.4411723092576239  1.0000
  C   C69       1.0  0.37205789423121877  0.16777637368361553  0.8411733403082308  1.0000
  C   C70       1.0  0.3321581878937963  0.872103821427402  0.5911926523394299  1.0000
  C   C71       1.0  0.6279263528319634  0.8322943899216643  0.3411133994880515  1.0000
  C   C72       1.0  0.6678061966671224  0.12793097928737046  0.0912033408450483  1.0000
  C   C73       1.0  0.8721021863837636  0.33215711566251827  0.4087940524022713  1.0000
  C   C74       1.0  0.12794967279999273  0.667816994612899  0.9088200420595242  1.0000
  C   C75       1.0  0.16776109997134372  0.3720866064342233  0.1588397317950481  1.0000
  C   C76       1.0  0.8322938710043246  0.6279234353141023  0.6588638754580246  1.0000
  N   N1        1.0  0.3443149448324904  0.9699957811641797  0.19602640126129964  1.0000
  N   N2        1.0  0.5300163084230007  0.844341557139032  0.9459976460529163  1.0000
  N   N3        1.0  0.6556956431878759  0.030006687414683604  0.6959798629565698  1.0000
  N   N4        1.0  0.46998227249694235  0.15565833343424634  0.4460375483679043  1.0000
  N   N5        1.0  0.844353540943388  0.5300001986591383  0.0539710516367009  1.0000
  N   N6        1.0  0.15564929863640495  0.4699917751057259  0.5539477045313105  1.0000
  N   N7        1.0  0.9699947720893648  0.3443112162978467  0.8040200660430372  1.0000
  N   N8        1.0  0.030009400822073904  0.6557085674618719  0.30401521879976207  1.0000
  N   N9        1.0  0.3193128026692096  0.9355271913954085  0.1205856118669715  1.0000
  N   N10       1.0  0.5644660899038672  0.8193239621015634  0.870552571660852  1.0000
  N   N11       1.0  0.6807027944018031  0.06448450198809041  0.6205353096352582  1.0000
  N   N12       1.0  0.43552415909893233  0.1806725535893463  0.3705886435799783  1.0000
  N   N13       1.0  0.8193269034585172  0.5644549935679636  0.1294198208577342  1.0000
  N   N14       1.0  0.18065906761498246  0.4355403559614217  0.6293972327064594  1.0000
  N   N15       1.0  0.9355163720569308  0.31929647048559673  0.8794565782060388  1.0000
  N   N16       1.0  0.0644968748027068  0.6807022290045455  0.3794529453451787  1.0000
  N   N17       1.0  0.2501280623967689  0.10200902926066392  0.937865435929389  1.0000
  N   N18       1.0  0.3980017034189629  0.7501011687623276  0.6878362463429255  1.0000
  N   N19       1.0  0.7498638288760802  0.8979790383474013  0.437842507326593  1.0000
  N   N20       1.0  0.6019710642060475  0.2499124547370428  0.1878477017783666  1.0000
  N   N21       1.0  0.7500985378363297  0.3980086917032751  0.31216283491508534  1.0000
  N   N22       1.0  0.24990713807825676  0.6019739969619028  0.8121565187987514  1.0000
  N   N23       1.0  0.10201145315286203  0.2501186809402186  0.062162571008123294  1.0000
  N   N24       1.0  0.8979817705462951  0.7498695512909705  0.5621519112236157  1.0000
  O   O1        1.0  0.3576469624635621  0.9458035719679145  0.9348057238838905  1.0000
  O   O2        1.0  0.554209421636692  0.8576440970794864  0.684700554510755  1.0000
  O   O3        1.0  0.6423879097453238  0.054206001976254505  0.4347727914945239  1.0000
  O   O4        1.0  0.44578557448481604  0.14236286864890965  0.18473428892566804  1.0000
  O   O5        1.0  0.8576640094623827  0.5541937201072359  0.3153001956645411  1.0000
  O   O6        1.0  0.14232240239731203  0.4458045204672772  0.8152682627233149  1.0000
  O   O7        1.0  0.9457632138652844  0.3575950218131824  0.0652253286745577  1.0000
  O   O8        1.0  0.05423001637601741  0.6424139502042437  0.5652241334242233  1.0000
  O   O9        1.0  0.1262268609314319  0.2149170126351622  0.9033371698393823  1.0000
  O   O10       1.0  0.28511034734111723  0.626272913545414  0.6532349303928838  1.0000
  O   O11       1.0  0.873753090115713  0.7850511947259592  0.4033110721191164  1.0000
  O   O12       1.0  0.7148897623266564  0.3737371547543163  0.1532412626244195  1.0000
  O   O13       1.0  0.6262446894590712  0.28514579221040753  0.346770482885546  1.0000
  O   O14       1.0  0.3737669973471328  0.7148567565815683  0.8467590934981573  1.0000
  O   O15       1.0  0.21495752669559215  0.12625041273748397  0.0966883770937486  1.0000
  O   O16       1.0  0.7850239195306231  0.8737473039910741  0.5966728517233406  1.0000
  O   O17       1.0  0.3869421105806907  0.9511075105198757  0.7978812543203375  1.0000
  O   O18       1.0  0.5488812927049623  0.8870585892603845  0.5478259897932604  1.0000
  O   O19       1.0  0.6131139300136184  0.0489397222710721  0.2978593950917059  1.0000
  O   O20       1.0  0.4510844710377739  0.11298603692630853  0.0478493327797125  1.0000
  O   O21       1.0  0.8870621422573067  0.5488743636552516  0.4521747437529484  1.0000
  O   O22       1.0  0.11298389044478804  0.45109436844210665  0.9521532355104299  1.0000
  O   O23       1.0  0.9510966751760891  0.38695591237340216  0.2021331182603419  1.0000
  O   O24       1.0  0.0489317137772218  0.6131073060225063  0.7021369367682624  1.0000
