data_image0
_chemical_formula_structural       Zn2H32C40S4N16
_chemical_formula_sum              "Zn2 H32 C40 S4 N16"
_cell_length_a       5.4510679873770105
_cell_length_b       12.54434183938649
_cell_length_c       18.235799294421085
_cell_angle_alpha    90.00071351902221
_cell_angle_beta     89.99967543581387
_cell_angle_gamma    90.83928305285522

_space_group_name_H-M_alt    "P 1"
_space_group_IT_number       1

loop_
  _space_group_symop_operation_xyz
  'x, y, z'

loop_
  _atom_site_type_symbol
  _atom_site_label
  _atom_site_symmetry_multiplicity
  _atom_site_fract_x
  _atom_site_fract_y
  _atom_site_fract_z
  _atom_site_occupancy
  Zn  Zn1       1.0  0.589065253192544  0.1692048120830947  0.0578830771321179  1.0000
  Zn  Zn2       1.0  0.4109377065796025  0.8308034471590631  0.5578910216371964  1.0000
  H   H1        1.0  0.2583656427770933  0.1709991498598029  0.9312412981310131  1.0000
  H   H2        1.0  0.7416275015054624  0.8289942919520142  0.4312382112133903  1.0000
  H   H3        1.0  0.909727041373138  0.06447487355787018  0.8832917485951127  1.0000
  H   H4        1.0  0.0902814950242217  0.935514469233837  0.3832912238131243  1.0000
  H   H5        1.0  0.06180984636743149  0.8283137612517419  0.04948090633021709  1.0000
  H   H6        1.0  0.9381947737243337  0.1716879630165096  0.5494768195676372  1.0000
  H   H7        1.0  0.40708525146620644  0.9458794227248647  0.09161198460660099  1.0000
  H   H8        1.0  0.5929187163778309  0.05412544953576769  0.591611858475481  1.0000
  H   H9        1.0  0.5715548091281875  0.9648089603211573  0.8445956476178365  1.0000
  H   H10       1.0  0.4284619819221476  0.0351836493113282  0.3445923075982762  1.0000
  H   H11       1.0  0.25270599965720214  0.7931734184685127  0.8470145969227898  1.0000
  H   H12       1.0  0.7473070783364903  0.2068192469895962  0.347017127334503  1.0000
  H   H13       1.0  0.1824526966791993  0.6448030291068817  0.9459792455183446  1.0000
  H   H14       1.0  0.8175460076892378  0.3551970366391827  0.4459812858402614  1.0000
  H   H15       1.0  0.42088204647257754  0.6288776390742611  0.012022655996538798  1.0000
  H   H16       1.0  0.5791121754127745  0.3711218554616593  0.5120247258033713  1.0000
  H   H17       1.0  0.6827129927222445  0.543273697426926  0.9132071341584832  1.0000
  H   H18       1.0  0.31729165324408376  0.45672257257950116  0.41320760010518837  1.0000
  H   H19       1.0  0.41205148741672554  0.47058626271830667  0.9382117127484901  1.0000
  H   H20       1.0  0.5879473599140966  0.5294136636071085  0.4382145392815247  1.0000
  H   H21       1.0  0.6516546767563014  0.429385664005828  0.7907469995926062  1.0000
  H   H22       1.0  0.34835626141492076  0.5706155706322491  0.2907527776843465  1.0000
  H   H23       1.0  0.37957457353088137  0.4643460978191455  0.665355014319928  1.0000
  H   H24       1.0  0.6204277082812766  0.5356537202948957  0.16535838796757218  1.0000
  H   H25       1.0  0.8520281850986963  0.7205348068047213  0.7918749843169264  1.0000
  H   H26       1.0  0.14798982281847373  0.2794616399141248  0.29187421448825995  1.0000
  H   H27       1.0  0.5428953700046506  0.8142392597300869  0.7160626831187074  1.0000
  H   H28       1.0  0.4571280305210905  0.18576219162913077  0.2160572969660777  1.0000
  H   H29       1.0  0.7560137950331054  0.6552144816067551  0.5277860043390489  1.0000
  H   H30       1.0  0.2439690902257325  0.3447845356697741  0.027783988061550198  1.0000
  H   H31       1.0  0.076168897516844  0.5556240475356803  0.5948893239489692  1.0000
  H   H32       1.0  0.923820007380222  0.44437455511858553  0.09489195036019278  1.0000
  C   C1        1.0  0.20962519601158655  0.09432632324627119  0.9559424226638383  1.0000
  C   C2        1.0  0.7903823729586463  0.9056714987157194  0.45593991161828734  1.0000
  C   C3        1.0  0.014384206198435804  0.03415996436573471  0.9293808392447572  1.0000
  C   C4        1.0  0.985623892734047  0.9658381780643381  0.4293801602186703  1.0000
  C   C5        1.0  0.9561296474337909  0.9356070313583372  0.9619736556445276  1.0000
  C   C6        1.0  0.043881684434914796  0.06439487267655152  0.46197066707667733  1.0000
  C   C7        1.0  0.10208163109516732  0.902985760183995  0.0212383945940715  1.0000
  C   C8        1.0  0.8979235088299974  0.09701545712914589  0.5212342832156196  1.0000
  C   C9        1.0  0.29371175193274723  0.9679484852390915  0.0449917891196705  1.0000
  C   C10       1.0  0.7062894055494695  0.032055562515587596  0.5449890887044686  1.0000
  C   C11       1.0  0.7505532196105025  0.8709998252885071  0.9354745762857846  1.0000
  C   C12       1.0  0.2494584767542634  0.12899921137694287  0.435470698538019  1.0000
  C   C13       1.0  0.5785558699121225  0.8951567748961508  0.8796149210058386  1.0000
  C   C14       1.0  0.4214476012241732  0.10483969551422229  0.37961273907406207  1.0000
  C   C15       1.0  0.4147950277545577  0.8102019978341417  0.8794967946395928  1.0000
  C   C16       1.0  0.5852211208885834  0.18979123829061711  0.37949506549653467  1.0000
  C   C17       1.0  0.38144196934189983  0.6394700201075735  0.9535103944388295  1.0000
  C   C18       1.0  0.6185602237984115  0.36052937124011913  0.45351281640341756  1.0000
  C   C19       1.0  0.4813326864604974  0.5441463405565371  0.9119630520048074  1.0000
  C   C20       1.0  0.5186648508447576  0.45585391801904507  0.4119664608080312  1.0000
  C   C21       1.0  0.49623995323702275  0.4806783719084322  0.7807017259640572  1.0000
  C   C22       1.0  0.5037617932102663  0.5193187271228368  0.2807068014435998  1.0000
  C   C23       1.0  0.35595248638222193  0.49987728291473127  0.7190303771933343  1.0000
  C   C24       1.0  0.6440543101803087  0.5001234801631326  0.21903559946958495  1.0000
  C   C25       1.0  0.1809107553515901  0.5756503116127476  0.7417274149044528  1.0000
  C   C26       1.0  0.8190899153219319  0.42434689122021735  0.24173059456549584  1.0000
  C   C27       1.0  0.9917677083281049  0.629124754577866  0.6999662460281469  1.0000
  C   C28       1.0  0.008243107654884299  0.37087565390035576  0.1999664967206272  1.0000
  C   C29       1.0  0.8362196248788865  0.7030772253439961  0.7336010854934469  1.0000
  C   C30       1.0  0.16379419943697124  0.2969229772725228  0.23359879373566628  1.0000
  C   C31       1.0  0.6634319799477311  0.7552606055500133  0.6919213518874725  1.0000
  C   C32       1.0  0.3365863621890668  0.2447404310159484  0.19191777218655656  1.0000
  C   C33       1.0  0.7822140567217487  0.6661368996769211  0.5866581400931564  1.0000
  C   C34       1.0  0.21778245993628786  0.3338639221809529  0.08665607428064699  1.0000
  C   C35       1.0  0.9599620442169368  0.6108142735568762  0.6245261229273564  1.0000
  C   C36       1.0  0.040031776853446395  0.3891840452819366  0.1245248319961192  1.0000
  C   C37       1.0  0.8287411947916824  0.29998236602470735  0.9340671307671896  1.0000
  C   C38       1.0  0.17125805741044786  0.700023863868573  0.4340803506381334  1.0000
  C   C39       1.0  0.9033061506480067  0.0484653254754832  0.1697956772465616  1.0000
  C   C40       1.0  0.096628839979644  0.9515475565596604  0.6697931244379516  1.0000
  S   S1        1.0  0.0105795899048857  0.3503047997549515  0.8735085858850339  1.0000
  S   S2        1.0  0.9894275798037456  0.649689954353029  0.37352054115527267  1.0000
  S   S3        1.0  0.03675431337373421  0.9761336563243148  0.22980653405362964  1.0000
  S   S4        1.0  0.9631616001680714  0.0238875396723444  0.7297923623715261  1.0000
  N   N1        1.0  0.3473453063202001  0.06264182082303899  0.013159256314956697  1.0000
  N   N2        1.0  0.6526525631461553  0.9373576817408208  0.5131589335409571  1.0000
  N   N3        1.0  0.6959724216527547  0.7758341364089105  0.9668909887292113  1.0000
  N   N4        1.0  0.30402769099509197  0.22416550126727228  0.46689002922554573  1.0000
  N   N5        1.0  0.49248433438999245  0.7408908376823219  0.9321017484591463  1.0000
  N   N6        1.0  0.507516418575719  0.2591081755391542  0.43210239054431543  1.0000
  N   N7        1.0  0.4039753482009799  0.5427882671394996  0.8352639782098661  1.0000
  N   N8        1.0  0.5960273103970835  0.4572113995628656  0.3352672680929061  1.0000
  N   N9        1.0  0.2116950987884465  0.5999508669990944  0.813317445429824  1.0000
  N   N10       1.0  0.7883042952818115  0.4000484181118437  0.3133204684735843  1.0000
  N   N11       1.0  0.6362070322751948  0.7376236559294893  0.619417759363351  1.0000
  N   N12       1.0  0.36379454851557824  0.2623809243246384  0.1194104465254426  1.0000
  N   N13       1.0  0.6953896495985106  0.2628739761135889  0.9793039276134647  1.0000
  N   N14       1.0  0.30460126868762677  0.7371299015393972  0.4793155958090694  1.0000
  N   N15       1.0  0.8079891080083287  0.1022672174156867  0.12449937249191116  1.0000
  N   N16       1.0  0.19201070922221675  0.8977406492908102  0.6245060675993555  1.0000
