data_image0
_chemical_formula_structural       Ag2H16C18S4N10O6
_chemical_formula_sum              "Ag2 H16 C18 S4 N10 O6"
_cell_length_a       7.315227029170649
_cell_length_b       8.754876005027295
_cell_length_c       10.14530179515847
_cell_angle_alpha    89.99999106856995
_cell_angle_beta     106.71064389793288
_cell_angle_gamma    90.00029016704588

_space_group_name_H-M_alt    "P 1"
_space_group_IT_number       1

loop_
  _space_group_symop_operation_xyz
  'x, y, z'

loop_
  _atom_site_type_symbol
  _atom_site_label
  _atom_site_symmetry_multiplicity
  _atom_site_fract_x
  _atom_site_fract_y
  _atom_site_fract_z
  _atom_site_occupancy
  Ag  Ag1       1.0  0.8561894753188996  0.7504567855601394  0.4645629287783918  1.0000
  Ag  Ag2       1.0  0.14380469259983641  0.25046409988517127  0.5354353640153846  1.0000
  H   H1        1.0  0.8822086739482059  0.1221658511160086  0.24909074751385413  1.0000
  H   H2        1.0  0.1177889750838332  0.6221608805512986  0.7509092604988153  1.0000
  H   H3        1.0  0.7575485804206893  0.2017041423658341  0.0019803625665275964  1.0000
  H   H4        1.0  0.24246383894315224  0.7017019411389072  0.9980158044841755  1.0000
  H   H5        1.0  0.8528339750042734  0.46749896260089213  0.9401731746467586  1.0000
  H   H6        1.0  0.1471900941293356  0.9675000295375399  0.05982440734418758  1.0000
  H   H7        1.0  0.118037220920165  0.7409336277439919  0.21046622364943346  1.0000
  H   H8        1.0  0.8819611689131862  0.24092816425131497  0.7895359023886069  1.0000
  H   H9        1.0  0.3649643338374347  0.7722469994693952  0.31044977298998316  1.0000
  H   H10       1.0  0.635035678514548  0.27223932309799886  0.6895536734066848  1.0000
  H   H11       1.0  0.6267524209204608  0.683330213390711  0.7438941244341847  1.0000
  H   H12       1.0  0.37324132678341476  0.18332035236686292  0.25611197057187235  1.0000
  H   H13       1.0  0.6243380986109842  0.8920070393481794  0.9187040783540824  1.0000
  H   H14       1.0  0.3756526714665754  0.3919915274401191  0.0812885730023325  1.0000
  H   H15       1.0  0.41244616964407743  0.12046395675066894  0.8320036380287942  1.0000
  H   H16       1.0  0.5875443316720065  0.6204532463150656  0.1679988303161933  1.0000
  C   C1        1.0  0.9145294881134235  0.2339185100524759  0.21475360477043637  1.0000
  C   C2        1.0  0.0854717133371139  0.7339179548143023  0.7852441764363433  1.0000
  C   C3        1.0  0.846877668398612  0.27833477036350723  0.07785153868450577  1.0000
  C   C4        1.0  0.15313237391683998  0.7783276241595869  0.9221480735620631  1.0000
  C   C5        1.0  0.8989069579445117  0.42349856861169854  0.04520981170058752  1.0000
  C   C6        1.0  0.10111398204245602  0.9234980349583354  0.9547871238713199  1.0000
  C   C7        1.0  0.062302037479220494  0.4662579888831999  0.27018177407710187  1.0000
  C   C8        1.0  0.9377048951691266  0.9662555311221224  0.7298201391995318  1.0000
  C   C9        1.0  0.21837064492606123  0.7524873980550809  0.31396253280652786  1.0000
  C   C10       1.0  0.7816292441294551  0.25248151732061797  0.6860408891784643  1.0000
  C   C11       1.0  0.3146290411290025  0.9152037609021302  0.5517313682888485  1.0000
  C   C12       1.0  0.6853690087153054  0.4151963768389706  0.44827166267364754  1.0000
  C   C13       1.0  0.5384337063595979  0.7853154742857242  0.7163730106871993  1.0000
  C   C14       1.0  0.46155354196500303  0.2853105674077767  0.283627787605134  1.0000
  C   C15       1.0  0.5384770714040243  0.8999978389753381  0.8116329881669343  1.0000
  C   C16       1.0  0.4615066106753005  0.39998838997663455  0.18836706372749745  1.0000
  C   C17       1.0  0.42183592368196093  0.025928096654595802  0.7642863736294315  1.0000
  C   C18       1.0  0.5781497063326952  0.52591504081105  0.2357121328980796  1.0000
  S   S1        1.0  0.20470846058326944  0.5772592876253312  0.40535578554111834  1.0000
  S   S2        1.0  0.7952931896008052  0.07725235134646621  0.5946480120066369  1.0000
  S   S3        1.0  0.14299551118231343  0.9179401625289642  0.38974005448238797  1.0000
  S   S4        1.0  0.8570011279745061  0.4179346386958755  0.610265640767963  1.0000
  N   N1        1.0  0.024000811260442803  0.3258904043202265  0.3119781374080901  1.0000
  N   N2        1.0  0.9759952542978568  0.8258847021648563  0.6880225158924063  1.0000
  N   N3        1.0  0.005408237088872201  0.5175390180379082  0.14099431242714638  1.0000
  N   N4        1.0  0.9946073141219357  0.017536320621992705  0.8590074433962724  1.0000
  N   N5        1.0  0.4256468665070372  0.7924324184512699  0.586415739332075  1.0000
  N   N6        1.0  0.5743489899526751  0.2924279767721173  0.41358684392146466  1.0000
  N   N7        1.0  0.3107035690971216  0.0362912357049012  0.6331414946130136  1.0000
  N   N8        1.0  0.68929354373023  0.5362809218080785  0.36686037858839876  1.0000
  N   N9        1.0  0.6293526665072021  0.9283651798171559  0.18110567363232372  1.0000
  N   N10       1.0  0.37064832102709744  0.4283654279308493  0.8188920517838694  1.0000
  O   O1        1.0  0.6045676572067508  0.9010420482265147  0.299170911922694  1.0000
  O   O2        1.0  0.3954303055967046  0.4010492933819664  0.7008242163950908  1.0000
  O   O3        1.0  0.7658082300894266  0.8643223195273748  0.14823227027500238  1.0000
  O   O4        1.0  0.23419521253985212  0.3643208088193005  0.8517649824271556  1.0000
  O   O5        1.0  0.5182078493885457  0.019414320841754294  0.10010854416729838  1.0000
  O   O6        1.0  0.4817962952282074  0.5194120703472648  0.8998908457492971  1.0000
