data_image0
_chemical_formula_structural       CuH22C18N4Cl2
_chemical_formula_sum              "Cu1 H22 C18 N4 Cl2"
_cell_length_a       8.133645928206445
_cell_length_b       7.950031888624728
_cell_length_c       8.834038477912404
_cell_angle_alpha    95.46094358065615
_cell_angle_beta     71.73179535115052
_cell_angle_gamma    78.57295488902945

_space_group_name_H-M_alt    "P 1"
_space_group_IT_number       1

loop_
  _space_group_symop_operation_xyz
  'x, y, z'

loop_
  _atom_site_type_symbol
  _atom_site_label
  _atom_site_symmetry_multiplicity
  _atom_site_fract_x
  _atom_site_fract_y
  _atom_site_fract_z
  _atom_site_occupancy
  Cu  Cu1       1.0  1.0274300770222674e-05  1.0515275590718821e-05  0.999996141231037  1.0000
  H   H1        1.0  0.9766507689792334  0.6175605406966511  0.09646073646653976  1.0000
  H   H2        1.0  0.023360325108576812  0.3824461181388372  0.9035236126374216  1.0000
  H   H3        1.0  0.861019253204496  0.6363271784929054  0.3052489463731263  1.0000
  H   H4        1.0  0.13899618907642974  0.3636864696207168  0.6947495128952994  1.0000
  H   H5        1.0  0.07697247370659716  0.49356619897151427  0.21641263354120346  1.0000
  H   H6        1.0  0.9230407330204357  0.506451195890719  0.7835738013048612  1.0000
  H   H7        1.0  0.4655395086967717  0.9460978523118867  0.3888469661566489  1.0000
  H   H8        1.0  0.5344546244354332  0.053907823425007  0.61118197259497  1.0000
  H   H9        1.0  0.26983622274245533  0.012072473216875287  0.5636003698002624  1.0000
  H   H10       1.0  0.7301367382587929  0.9879321890280932  0.4364283289209111  1.0000
  H   H11       1.0  0.31709204839680183  0.1508025304134506  0.41679238596640283  1.0000
  H   H12       1.0  0.6828863042498767  0.8492061697474184  0.5832352930531215  1.0000
  H   H13       1.0  0.06466786682377547  0.5938892444329866  0.5050264423654198  1.0000
  H   H14       1.0  0.9353518833956046  0.40609301267044623  0.4949338880105073  1.0000
  H   H15       1.0  0.08167839224692848  0.7760028456284827  0.6227772728640062  1.0000
  H   H16       1.0  0.9183166037254579  0.223984505543001  0.3772270973893371  1.0000
  H   H17       1.0  0.31389984520363606  0.737343330419229  0.72868453489167  1.0000
  H   H18       1.0  0.6860916612636102  0.26262098792462746  0.27132461736346164  1.0000
  H   H19       1.0  0.60727143360306  0.5764638562930032  0.7254521065679285  1.0000
  H   H20       1.0  0.39272680069756677  0.4234929791487828  0.27452237036241195  1.0000
  H   H21       1.0  0.25058651711884045  0.06756133119435498  0.14316556609529835  1.0000
  H   H22       1.0  0.7494139938028255  0.9324578227411775  0.8568417945610063  1.0000
  C   C1        1.0  0.9938190979166707  0.6200272205371462  0.21444450110094235  1.0000
  C   C2        1.0  0.00619428611692291  0.37997870320524635  0.7855439306863659  1.0000
  C   C3        1.0  0.07947485590378274  0.7620521729868343  0.24666978871770337  1.0000
  C   C4        1.0  0.9205382964313671  0.23796221021988362  0.753324587867361  1.0000
  C   C5        1.0  0.15112873056027354  0.7876293816930228  0.37123373852023894  1.0000
  C   C6        1.0  0.8488900301753617  0.21237340109762937  0.6287592311605152  1.0000
  C   C7        1.0  0.22568799711552856  0.9308343703340469  0.34564126065206585  1.0000
  C   C8        1.0  0.7743276419845486  0.0691730043884036  0.6543707290745076  1.0000
  C   C9        1.0  0.3239338983278799  0.014922776379258111  0.4336248612268819  1.0000
  C   C10       1.0  0.6760617495283154  0.985087892250796  0.5664015908660076  1.0000
  C   C11       1.0  0.14824987718981925  0.6867332031486485  0.5066584048640266  1.0000
  C   C12       1.0  0.8517479543277915  0.31325500389984734  0.49334083188025357  1.0000
  C   C13       1.0  0.3301343279448973  0.5904846839600919  0.5030108223449758  1.0000
  C   C14       1.0  0.6698357589092439  0.4094941642810497  0.496974491673754  1.0000
  C   C15       1.0  0.3939931733877983  0.6319049359098017  0.6283782762570311  1.0000
  C   C16       1.0  0.6059843106200232  0.3680960851244706  0.3716277081256081  1.0000
  C   C17       1.0  0.5611434556991242  0.5424975281236469  0.6255488654166969  1.0000
  C   C18       1.0  0.43883258003771175  0.45746728354811944  0.3744132134219598  1.0000
  N   N1        1.0  0.10749729967303517  0.8847194228548572  0.15123894908489177  1.0000
  N   N2        1.0  0.8925136067340277  0.1152895470938589  0.8487660517848994  1.0000
  N   N3        1.0  0.19535979560001232  0.9849151658431338  0.2146783541350885  1.0000
  N   N4        1.0  0.8046541269644151  0.015110033185770528  0.7853309518577803  1.0000
  Cl  Cl1       1.0  0.25989369861157735  0.0847742646138414  0.8918053427185625  1.0000
  Cl  Cl2       1.0  0.7401158035080542  0.9152491579142531  0.10818998217739309  1.0000
