data_image0
_chemical_formula_structural       Cd2H36C40N8O8
_chemical_formula_sum              "Cd2 H36 C40 N8 O8"
_cell_length_a       8.160231763720466
_cell_length_b       8.160222428729758
_cell_length_c       14.075768511385677
_cell_angle_alpha    90.81625060335303
_cell_angle_beta     90.8165753588169
_cell_angle_gamma    90.59205354938136

_space_group_name_H-M_alt    "P 1"
_space_group_IT_number       1

loop_
  _space_group_symop_operation_xyz
  'x, y, z'

loop_
  _atom_site_type_symbol
  _atom_site_label
  _atom_site_symmetry_multiplicity
  _atom_site_fract_x
  _atom_site_fract_y
  _atom_site_fract_z
  _atom_site_occupancy
  Cd  Cd1       1.0  0.7966021914266219  0.20339400319758033  0.7499998590943875  1.0000
  Cd  Cd2       1.0  0.20339370529787  0.7966062882253483  0.24999946082128585  1.0000
  H   H1        1.0  0.8198679074833702  0.7063973967113739  0.38805128288386465  1.0000
  H   H2        1.0  0.29360583136524093  0.18013954919645409  0.11195100542025219  1.0000
  H   H3        1.0  0.1801353952529894  0.2936065645694228  0.6119495313306443  1.0000
  H   H4        1.0  0.7063986394232558  0.8198595106635195  0.8880504945036947  1.0000
  H   H5        1.0  0.6428636874967282  0.5083135827303026  0.2962737344143348  1.0000
  H   H6        1.0  0.4916912491908434  0.3571444445686467  0.2037264723898389  1.0000
  H   H7        1.0  0.357142047597641  0.49168914473919045  0.7037263772998086  1.0000
  H   H8        1.0  0.5083156469729246  0.6428533745041634  0.7962729040482728  1.0000
  H   H9        1.0  0.5273992682940686  0.2596685856364972  0.37252924162171996  1.0000
  H   H10       1.0  0.740336864861078  0.4726049047507885  0.12746903115551328  1.0000
  H   H11       1.0  0.4726076888570319  0.7403341360043852  0.627470167707223  1.0000
  H   H12       1.0  0.25966634069288824  0.5273929073923187  0.8725274789890276  1.0000
  H   H13       1.0  0.5911066623461423  0.1989495559620096  0.5417050353054123  1.0000
  H   H14       1.0  0.8010512805366757  0.4088942040246978  0.9582929924346641  1.0000
  H   H15       1.0  0.4088953586275039  0.8010507202696077  0.4582936146552256  1.0000
  H   H16       1.0  0.1989482753752796  0.5911060629365466  0.04170279933995149  1.0000
  H   H17       1.0  0.972038153321975  0.8351505423181392  0.5015881402342046  1.0000
  H   H18       1.0  0.16484801124763493  0.027959806252148695  0.9984115638347004  1.0000
  H   H19       1.0  0.0279614235382013  0.16484974557069174  0.49841191449682026  1.0000
  H   H20       1.0  0.8351491145163263  0.9720404863180292  0.001588474681248896  1.0000
  H   H21       1.0  0.09394318872979569  0.7956342723016476  0.6027004872243751  1.0000
  H   H22       1.0  0.20436603218148258  0.9060590843497281  0.8972985857210529  1.0000
  H   H23       1.0  0.9060563541453347  0.20436356081521012  0.3972988405685029  1.0000
  H   H24       1.0  0.7956274674513963  0.0939461073467669  0.1026993298849135  1.0000
  H   H25       1.0  0.951652143608598  0.521552391000597  0.8118229468951553  1.0000
  H   H26       1.0  0.478448257554298  0.0483444597064846  0.6881793765487456  1.0000
  H   H27       1.0  0.04834744151567351  0.47844911555439035  0.1881756950731129  1.0000
  H   H28       1.0  0.5215500550000056  0.9516521605728202  0.31182206639208226  1.0000
  H   H29       1.0  0.8891388886983265  0.7282035072929816  0.7893566766905165  1.0000
  H   H30       1.0  0.27179663777804547  0.11085614708223798  0.7106444790700763  1.0000
  H   H31       1.0  0.11086071039142098  0.27179801321373276  0.21064480724869836  1.0000
  H   H32       1.0  0.728200404768998  0.889138010301977  0.2893540973468518  1.0000
  H   H33       1.0  0.07948677549686782  0.6568859098183424  0.748082703865684  1.0000
  H   H34       1.0  0.3431123568406277  0.9205100979005253  0.7519193663787006  1.0000
  H   H35       1.0  0.9205127978719361  0.3431143745825551  0.251916640372606  1.0000
  H   H36       1.0  0.6568847231828272  0.0794865177435895  0.2480806474691164  1.0000
  C   C1        1.0  0.7685374493674999  0.5979583660869352  0.4213361875598664  1.0000
  C   C2        1.0  0.40204492182588325  0.2314696750991132  0.07866690348593858  1.0000
  C   C3        1.0  0.2314670484232977  0.4020431415691447  0.5786646183167645  1.0000
  C   C4        1.0  0.597959567700819  0.7685306138908102  0.921335315153456  1.0000
  C   C5        1.0  0.6712625128815262  0.48459591763393217  0.3706828637645002  1.0000
  C   C6        1.0  0.5154075958817258  0.3287414111409318  0.1293166818446494  1.0000
  C   C7        1.0  0.3287407371315894  0.5154043597449345  0.6293165047964067  1.0000
  C   C8        1.0  0.4845968186921538  0.6712539613291852  0.8706826619329603  1.0000
  C   C9        1.0  0.6068640698997072  0.3432067165773915  0.41369644568247566  1.0000
  C   C10       1.0  0.6567986781103841  0.3931401152286255  0.0863039514325834  1.0000
  C   C11       1.0  0.39313921409845415  0.6567960155734482  0.5863036498165923  1.0000
  C   C12       1.0  0.34320458714956453  0.6068613877922714  0.9136954253510365  1.0000
  C   C13       1.0  0.63968244301374  0.30911934646284334  0.5088616328845177  1.0000
  C   C14       1.0  0.6908830987679551  0.3603155919461756  0.9911377061583335  1.0000
  C   C15       1.0  0.3603183676586354  0.6908821577514672  0.491137017191292  1.0000
  C   C16       1.0  0.30911641838623166  0.6396810050648655  0.008859481933626498  1.0000
  C   C17       1.0  0.7361482349153049  0.42221318454343043  0.5608995783182066  1.0000
  C   C18       1.0  0.577790859765642  0.26384910995238187  0.9391025811378808  1.0000
  C   C19       1.0  0.26385137942127557  0.5777895616052999  0.4391019138437144  1.0000
  C   C20       1.0  0.42220745756138456  0.7361487255051529  0.06089673854744859  1.0000
  C   C21       1.0  0.7968334652756823  0.5650248243005433  0.5170616120456797  1.0000
  C   C22       1.0  0.4349767858010267  0.20316598835181304  0.9829404099269822  1.0000
  C   C23       1.0  0.203167359362169  0.4349766938654939  0.4829398800010693  1.0000
  C   C24       1.0  0.565021519770532  0.7968306249516316  0.01705961202837609  1.0000
  C   C25       1.0  0.8730800637865311  0.5639414476118461  0.669783618289756  1.0000
  C   C26       1.0  0.4360592833071308  0.12691748190632515  0.8302178021858706  1.0000
  C   C27       1.0  0.1269170737328977  0.4360600671124217  0.3302157179561717  1.0000
  C   C28       1.0  0.5639365981705281  0.8730815838745799  0.1697815095070894  1.0000
  C   C29       1.0  0.966549399748679  0.8065270069069965  0.5776327804191439  1.0000
  C   C30       1.0  0.19347349509196476  0.03345364036496079  0.9223677187966428  1.0000
  C   C31       1.0  0.0334501923583304  0.1934745066238506  0.4223672825345943  1.0000
  C   C32       1.0  0.8065224508643993  0.9665503314719572  0.07763233627989757  1.0000
  C   C33       1.0  0.888545900997819  0.9503934647082842  0.6299352347491833  1.0000
  C   C34       1.0  0.04960711971013149  0.111457843165816  0.8700656145410475  1.0000
  C   C35       1.0  0.11145366759826199  0.0496056045143831  0.37006623274460526  1.0000
  C   C36       1.0  0.9503901127816758  0.8885510288985045  0.12993448153387277  1.0000
  C   C37       1.0  0.9514954783107683  0.6203461973270449  0.7600498727821474  1.0000
  C   C38       1.0  0.3796547479218474  0.0485029967316066  0.7399530124331477  1.0000
  C   C39       1.0  0.0485053615739233  0.37965654648100877  0.23995162748730783  1.0000
  C   C40       1.0  0.6203423508398132  0.951494848042465  0.2600477201301175  1.0000
  N   N1        1.0  0.8820450058351028  0.6512972724296304  0.5878943028791779  1.0000
  N   N2        1.0  0.3487011617234046  0.11795455238217298  0.9121076969879593  1.0000
  N   N3        1.0  0.1179545627609784  0.348701796793044  0.4121071646146105  1.0000
  N   N4        1.0  0.6512947350010874  0.8820457390407554  0.08789162292771377  1.0000
  N   N5        1.0  0.7867782197962468  0.4252218842842623  0.6558503343030395  1.0000
  N   N6        1.0  0.5747789966651097  0.21321915617199488  0.8441504619665494  1.0000
  N   N7        1.0  0.213223842145176  0.5747808536951879  0.34415046358122936  1.0000
  N   N8        1.0  0.42521683208930466  0.7867762257069868  0.1558474040728157  1.0000
  O   O1        1.0  0.9798919438427801  0.077585325578589  0.6392196267341888  1.0000
  O   O2        1.0  0.9224123948167671  0.0201109079683306  0.8607813654409212  1.0000
  O   O3        1.0  0.020108830281841995  0.9224113004831551  0.36078396389993367  1.0000
  O   O4        1.0  0.07757991197169639  0.9798955291505181  0.13922010274389146  1.0000
  O   O5        1.0  0.7443131898186622  0.9394652321788894  0.6615809753956228  1.0000
  O   O6        1.0  0.060533856189017896  0.2556885048666118  0.838419630746955  1.0000
  O   O7        1.0  0.25568755858501657  0.060530157777044694  0.3384204755375748  1.0000
  O   O8        1.0  0.9394645478462992  0.7443154692648123  0.16158186153013787  1.0000
