data_image0
_chemical_formula_structural       Mn2H44C76N8O8
_chemical_formula_sum              "Mn2 H44 C76 N8 O8"
_cell_length_a       10.68471916376354
_cell_length_b       13.366745582336685
_cell_length_c       13.366785271861556
_cell_angle_alpha    79.47273019657428
_cell_angle_beta     66.43898864574957
_cell_angle_gamma    66.43906511296848

_space_group_name_H-M_alt    "P 1"
_space_group_IT_number       1

loop_
  _space_group_symop_operation_xyz
  'x, y, z'

loop_
  _atom_site_type_symbol
  _atom_site_label
  _atom_site_symmetry_multiplicity
  _atom_site_fract_x
  _atom_site_fract_y
  _atom_site_fract_z
  _atom_site_occupancy
  Mn  Mn1       1.0  0.37796742926029464  0.12203537819192431  0.12200288771820308  1.0000
  Mn  Mn2       1.0  0.8779647422253164  0.6220062621917749  0.6220424596370364  1.0000
  H   H1        1.0  0.2602837969799339  0.12605864651921198  0.9404052459271597  1.0000
  H   H2        1.0  0.6732713520526301  0.9406239100106787  0.126071043212832  1.0000
  H   H3        1.0  0.7602872651790804  0.4404075990404337  0.6260602576279409  1.0000
  H   H4        1.0  0.17327183516196976  0.6260676012506463  0.4406272693479352  1.0000
  H   H5        1.0  0.19211565647670173  0.2644864819607804  0.7990116642515943  1.0000
  H   H6        1.0  0.7445263402823343  0.7992368242962088  0.2644476189943532  1.0000
  H   H7        1.0  0.6921124049067302  0.29901675826091895  0.7644876039590827  1.0000
  H   H8        1.0  0.24452866780335814  0.764443078192464  0.29923755905010546  1.0000
  H   H9        1.0  0.19606024955798765  0.4524265016520133  0.7948763451024377  1.0000
  H   H10       1.0  0.5567531768376668  0.7950105614089723  0.4523877875581661  1.0000
  H   H11       1.0  0.6960529200786496  0.29488363009215135  0.9524272578820356  1.0000
  H   H12       1.0  0.056756009755055556  0.9523843741054705  0.29501223026021955  1.0000
  H   H13       1.0  0.23293730150290062  0.5847603546641976  0.887771069513569  1.0000
  H   H14       1.0  0.29456245334602493  0.8878208688195316  0.5847513144641496  1.0000
  H   H15       1.0  0.7329373975098861  0.3877748749602787  0.0847605007260483  1.0000
  H   H16       1.0  0.794564555544973  0.08474877167834902  0.387820545529685  1.0000
  H   H17       1.0  0.36522593268168174  0.5453493597246107  0.20728990702168199  1.0000
  H   H18       1.0  0.8820778638036444  0.20730513215059437  0.5454583262184514  1.0000
  H   H19       1.0  0.8652322250294942  0.7072934555131454  0.0453479310090472  1.0000
  H   H20       1.0  0.3820800832891039  0.045456319148399926  0.7073024302862477  1.0000
  H   H21       1.0  0.4440670958502294  0.3810543588538308  0.3248188646473977  1.0000
  H   H22       1.0  0.8499204055561477  0.32485675882906395  0.3811864681706468  1.0000
  H   H23       1.0  0.9440720335889596  0.82482297333042  0.8810539106191227  1.0000
  H   H24       1.0  0.34991916118715954  0.8811871176579161  0.8248560389547562  1.0000
  H   H25       1.0  0.46234228035017105  0.2004686238687867  0.28396469010081654  1.0000
  H   H26       1.0  0.0529993919962379  0.2840182649756713  0.20055063790270816  1.0000
  H   H27       1.0  0.962342148442047  0.7839689103858946  0.7004691087136976  1.0000
  H   H28       1.0  0.5529996560358227  0.7005501582562204  0.7840209539765296  1.0000
  H   H29       1.0  0.06081259318180803  0.7220657193078494  0.05252832187390059  1.0000
  H   H30       1.0  0.16454643481856124  0.05255394104283793  0.7221364484239459  1.0000
  H   H31       1.0  0.5608177566717174  0.5525338582415741  0.22206490327327796  1.0000
  H   H32       1.0  0.6645445597588234  0.22213282447683  0.552553354603198  1.0000
  H   H33       1.0  0.03301361925692706  0.9120262595643354  0.0806536008722958  1.0000
  H   H34       1.0  0.9741757313712683  0.08059099203938301  0.9121162286098253  1.0000
  H   H35       1.0  0.5330204231418351  0.5806606995990506  0.41202367630345543  1.0000
  H   H36       1.0  0.4741722108305597  0.4121109293879854  0.5805936428737013  1.0000
  H   H37       1.0  0.4834552157379125  0.7953225040350204  0.04863143054711829  1.0000
  H   H38       1.0  0.672623936858173  0.048518850955183365  0.7952746493242415  1.0000
  H   H39       1.0  0.9834660028075961  0.5486280868799084  0.2953204668320168  1.0000
  H   H40       1.0  0.17262099228201333  0.29527085836866723  0.5485203584179031  1.0000
  H   H41       1.0  0.5113415931676573  0.6054488372888044  0.024573959343506094  1.0000
  H   H42       1.0  0.8586809623379068  0.02468147774467878  0.6053878062289542  1.0000
  H   H43       1.0  0.011351003036921195  0.5245692059637221  0.10544789490348447  1.0000
  H   H44       1.0  0.35868042625580193  0.10538376547831523  0.5246818934889602  1.0000
  C   C1        1.0  0.26075196696346137  0.2078699650768242  0.9366441724167202  1.0000
  C   C2        1.0  0.5947347322102984  0.9368248666920138  0.20786553578225409  1.0000
  C   C3        1.0  0.7607512971302057  0.4366507842774681  0.707870006270525  1.0000
  C   C4        1.0  0.09473609894068591  0.7078626053816208  0.4368289236871448  1.0000
  C   C5        1.0  0.22209366058550034  0.2864795270316378  0.8585618541616709  1.0000
  C   C6        1.0  0.6329690665763367  0.8587424956137398  0.28644813844839934  1.0000
  C   C7        1.0  0.7220880042719315  0.35856954859144  0.7864822560939969  1.0000
  C   C8        1.0  0.1329716160345742  0.786445160285318  0.35874468994613545  1.0000
  C   C9        1.0  0.2230035164102444  0.3906627196280611  0.8563867952670633  1.0000
  C   C10       1.0  0.5300654933661659  0.8565010785163808  0.3906116701941471  1.0000
  C   C11       1.0  0.7229966756038023  0.35639346203403477  0.8906645436751714  1.0000
  C   C12       1.0  0.030069924097070096  0.890609721405589  0.35650275476361054  1.0000
  C   C13       1.0  0.2631809585034191  0.5194444969216151  0.9455649398442316  1.0000
  C   C14       1.0  0.2718145646985024  0.9456307246885841  0.5194356349920781  1.0000
  C   C15       1.0  0.7631828004100071  0.4455700797117145  0.0194426890784314  1.0000
  C   C16       1.0  0.7718166763173925  0.019432491812885682  0.44563041140181525  1.0000
  C   C17       1.0  0.2987759124473967  0.5399700639519409  0.0261098289518884  1.0000
  C   C18       1.0  0.1351380438363066  0.026204451748277804  0.5399580480224557  1.0000
  C   C19       1.0  0.7987796763436636  0.5261143207170208  0.039970498533001796  1.0000
  C   C20       1.0  0.6351381198259815  0.03995555315576391  0.5262025627701661  1.0000
  C   C21       1.0  0.3750240754649639  0.46533084306857825  0.19048636068028907  1.0000
  C   C22       1.0  0.9690681463120043  0.19049347611758802  0.46541244147841343  1.0000
  C   C23       1.0  0.8750275197956584  0.690489487605639  0.965331070994999  1.0000
  C   C24       1.0  0.46906761744338565  0.9654132055036017  0.6904919205678511  1.0000
  C   C25       1.0  0.4177912767009245  0.3745544698730896  0.2560301964909328  1.0000
  C   C26       1.0  0.9514927437516859  0.25604484421790374  0.3746546959861305  1.0000
  C   C27       1.0  0.917795752960174  0.7560319450365042  0.8745530568877696  1.0000
  C   C28       1.0  0.4514942059968947  0.8746547521621223  0.7560446042037227  1.0000
  C   C29       1.0  0.42646371033008257  0.2729019288375482  0.23502873160761337  1.0000
  C   C30       1.0  0.06539905957502871  0.2350403033352038  0.27295775392267524  1.0000
  C   C31       1.0  0.9264657986730784  0.735033821612504  0.7729019506463644  1.0000
  C   C32       1.0  0.565400722207691  0.7729576738654416  0.7350429588655133  1.0000
  C   C33       1.0  0.34768875513019276  0.3486987171204489  0.08938609678916977  1.0000
  C   C34       1.0  0.21410881873887894  0.08941085639175841  0.348701906040489  1.0000
  C   C35       1.0  0.8476897218931398  0.5893902453505718  0.8487014703129958  1.0000
  C   C36       1.0  0.7141072901300093  0.8487010719874489  0.5894126494225063  1.0000
  C   C37       1.0  0.30341397640968654  0.3307650226128374  0.009654893792756499  1.0000
  C   C38       1.0  0.35608693759030524  0.009705553142609322  0.33075484214244705  1.0000
  C   C39       1.0  0.8034140852402769  0.5096575657184772  0.8307662911521874  1.0000
  C   C40       1.0  0.8560894365776193  0.8307541691609046  0.5097062581074567  1.0000
  C   C41       1.0  0.26292852419327767  0.41503379655353706  0.9349348424618568  1.0000
  C   C42       1.0  0.3871265469506041  0.9350111230594537  0.4150076342916193  1.0000
  C   C43       1.0  0.7629254409246611  0.43493992957840527  0.9150323864943813  1.0000
  C   C44       1.0  0.8871306291686386  0.9150038640819744  0.43501201264473366  1.0000
  C   C45       1.0  0.34244441118072894  0.4533796442916725  0.10197618659912419  1.0000
  C   C46       1.0  0.10211497150326916  0.10198503144418679  0.453423485936284  1.0000
  C   C47       1.0  0.8424489562177797  0.601980440577087  0.9533788099147954  1.0000
  C   C48       1.0  0.6021122369929515  0.9534218360353036  0.6019858055190355  1.0000
  C   C49       1.0  0.2870193304655686  0.6514496944852367  0.037781758487490394  1.0000
  C   C50       1.0  0.023725414592846102  0.03781067483335223  0.6515100405041281  1.0000
  C   C51       1.0  0.7870255494974856  0.5377809775899395  0.1514490807826405  1.0000
  C   C52       1.0  0.5237244340273151  0.15150704982904264  0.5378100643705394  1.0000
  C   C53       1.0  0.1533422004521584  0.7387052101005408  0.0512373941225661  1.0000
  C   C54       1.0  0.056687024508782664  0.051231028608981426  0.7388012006254172  1.0000
  C   C55       1.0  0.653348927969766  0.5512381324617336  0.2387043601840588  1.0000
  C   C56       1.0  0.5566865620030227  0.2387978492650547  0.5512314435196685  1.0000
  C   C57       1.0  0.1374079432918263  0.8439354023704908  0.0666876775504335  1.0000
  C   C58       1.0  0.9519196239952593  0.06665335788579799  0.8439837960148964  1.0000
  C   C59       1.0  0.6374163228549605  0.566690690308633  0.3439338251804642  1.0000
  C   C60       1.0  0.45191892547496343  0.3439794314704159  0.566654457634108  1.0000
  C   C61       1.0  0.25612025578328707  0.8639354141415296  0.0671079301640631  1.0000
  C   C62       1.0  0.8128506028226923  0.06694783142945238  0.8639227577604984  1.0000
  C   C63       1.0  0.7561298749412158  0.567108835294853  0.363933555412352  1.0000
  C   C64       1.0  0.3128493488765969  0.36391928694890646  0.5669511433590414  1.0000
  C   C65       1.0  0.39138460486587706  0.7778270967773863  0.050234106545914904  1.0000
  C   C66       1.0  0.7805910004639144  0.05010192873022856  0.7778255450085892  1.0000
  C   C67       1.0  0.8913935423194134  0.5502329792416346  0.2778248533501042  1.0000
  C   C68       1.0  0.2805885907364142  0.27781964118057806  0.5501018491098719  1.0000
  C   C69       1.0  0.4063684383308227  0.6723379091037599  0.0368304783333073  1.0000
  C   C70       1.0  0.8845297706322626  0.036855925891636325  0.6722942808781553  1.0000
  C   C71       1.0  0.906376435101798  0.5368285618710473  0.1723364180884062  1.0000
  C   C72       1.0  0.38452885362704614  0.17229082822748157  0.5368552095742913  1.0000
  C   C73       1.0  0.2355654119006941  0.9766658964879795  0.09058779766313309  1.0000
  C   C74       1.0  0.6971757141030893  0.09048041161619123  0.9767071427802488  1.0000
  C   C75       1.0  0.7355751990491517  0.5905905241115973  0.4766616636343172  1.0000
  C   C76       1.0  0.19717224595201063  0.4767023544742415  0.5904840236642882  1.0000
  N   N1        1.0  0.3016297098662691  0.22832734242976468  0.011564111732354799  1.0000
  N   N2        1.0  0.4584274642603887  0.011659783723750662  0.22829990118395216  1.0000
  N   N3        1.0  0.80162546710789  0.5115678930215211  0.7283301841594819  1.0000
  N   N4        1.0  0.9584316932422612  0.7282994252870195  0.5116602598506573  1.0000
  N   N5        1.0  0.3902587519765532  0.25921847611346754  0.1543018731233516  1.0000
  N   N6        1.0  0.19604394974314937  0.1543331241115808  0.2592612739314005  1.0000
  N   N7        1.0  0.8902620007462617  0.6543066293123869  0.7592209701953009  1.0000
  N   N8        1.0  0.6960452360455136  0.7592609841678026  0.654335672521583  1.0000
  O   O1        1.0  0.10959608778860996  0.047025909880225904  0.126508039128673  1.0000
  O   O2        1.0  0.716884546396372  0.12643839668367454  0.0470023451392123  1.0000
  O   O3        1.0  0.6096067227482603  0.6265202638969143  0.5470193726683091  1.0000
  O   O4        1.0  0.2168798076718801  0.5469965966167437  0.6264494644221016  1.0000
  O   O5        1.0  0.35842040615600024  0.9879160661797143  0.0704873617248509  1.0000
  O   O6        1.0  0.5831233961178411  0.07043178623513317  0.9879028108347826  1.0000
  O   O7        1.0  0.85842602308162  0.5704763301633307  0.4879102365867922  1.0000
  O   O8        1.0  0.0831328354743449  0.4878948250735959  0.5704293396697507  1.0000
