data_image0
_chemical_formula_structural       Cd4H32C24S4N8Cl4O4
_chemical_formula_sum              "Cd4 H32 C24 S4 N8 Cl4 O4"
_cell_length_a       9.573783024772599
_cell_length_b       10.460514906780991
_cell_length_c       11.036765756072759
_cell_angle_alpha    90.00028866237514
_cell_angle_beta     89.9996108693686
_cell_angle_gamma    113.34013880349755

_space_group_name_H-M_alt    "P 1"
_space_group_IT_number       1

loop_
  _space_group_symop_operation_xyz
  'x, y, z'

loop_
  _atom_site_type_symbol
  _atom_site_label
  _atom_site_symmetry_multiplicity
  _atom_site_fract_x
  _atom_site_fract_y
  _atom_site_fract_z
  _atom_site_occupancy
  Cd  Cd1       1.0  0.6448225996433339  0.6399404217002671  0.899012999682199  1.0000
  Cd  Cd2       1.0  0.35517697984524693  0.8600617671975571  0.39901645018476734  1.0000
  Cd  Cd3       1.0  0.3551663387922163  0.3600569026723761  0.1009804828549292  1.0000
  Cd  Cd4       1.0  0.6448277879269285  0.13993594135181553  0.6009806565568354  1.0000
  H   H1        1.0  0.7328465244925298  0.3916220743207575  0.7917107862134074  1.0000
  H   H2        1.0  0.2671463511610953  0.10837133121723502  0.2917135547496486  1.0000
  H   H3        1.0  0.2671516921910212  0.6083723835889858  0.2082872266022662  1.0000
  H   H4        1.0  0.7328421761916958  0.8916301053856729  0.708285364173733  1.0000
  H   H5        1.0  0.4888347427346958  0.700311111292507  0.6270634621938811  1.0000
  H   H6        1.0  0.5111685256093353  0.7996923843154776  0.1270638941796136  1.0000
  H   H7        1.0  0.511167050904291  0.29967931121991853  0.37292820816387007  1.0000
  H   H8        1.0  0.4888291021073457  0.20031854809340652  0.8729332126145408  1.0000
  H   H9        1.0  0.9919575096152827  0.6502478548781881  0.1096865610506725  1.0000
  H   H10       1.0  0.008044406357299635  0.849759676181641  0.6096860484766893  1.0000
  H   H11       1.0  0.0080282491189578  0.34974423958463774  0.8903123578585834  1.0000
  H   H12       1.0  0.9919652405805409  0.15024742574534145  0.3903210249608692  1.0000
  H   H13       1.0  0.11359969831445242  0.8275389912604969  0.0694114656489973  1.0000
  H   H14       1.0  0.8863978357891755  0.672467277925627  0.5694130902597081  1.0000
  H   H15       1.0  0.8863869101801927  0.17245518492355674  0.9305865472001783  1.0000
  H   H16       1.0  0.11360885081737146  0.32753769105328  0.4305921710564036  1.0000
  H   H17       1.0  0.18493983168317382  0.6917249719133951  0.061897861201295305  1.0000
  H   H18       1.0  0.8150575461654911  0.8082833312667149  0.5619014596333329  1.0000
  H   H19       1.0  0.815045735329413  0.30827433174543734  0.938101963788249  1.0000
  H   H20       1.0  0.1849499763787606  0.19171856635387038  0.4381056137980721  1.0000
  H   H21       1.0  0.17654272168436347  0.7823373366533276  0.7266915896995344  1.0000
  H   H22       1.0  0.8234577687827668  0.7176612479501686  0.22668979168264514  1.0000
  H   H23       1.0  0.8234592912652162  0.21765618284751304  0.2733109534154181  1.0000
  H   H24       1.0  0.17654787634766225  0.2823488485008526  0.7733154696487574  1.0000
  H   H25       1.0  0.2829493064585692  0.7501986884459273  0.8487369176984316  1.0000
  H   H26       1.0  0.7170478480157388  0.7497991633760039  0.34873589949450695  1.0000
  H   H27       1.0  0.7170444696983297  0.24979257005503544  0.15126743756045608  1.0000
  H   H28       1.0  0.28296264868250637  0.2502100202722062  0.6512702678829712  1.0000
  H   H29       1.0  0.22823777725460564  0.8968784158102923  0.855550112757072  1.0000
  H   H30       1.0  0.771760593346727  0.6031174255724708  0.3555507910721971  1.0000
  H   H31       1.0  0.7717566293223898  0.10311182743681263  0.14445152430992889  1.0000
  H   H32       1.0  0.22824461309417646  0.39688647693239437  0.6444535641831948  1.0000
  C   C1        1.0  0.5657360389757643  0.4134595821427852  0.5441297415676232  1.0000
  C   C2        1.0  0.43426440891471435  0.08654766658496271  0.0441395765654136  1.0000
  C   C3        1.0  0.43425099442731624  0.5865356348892096  0.45585921065739404  1.0000
  C   C4        1.0  0.5657467320174094  0.9134656548929319  0.9558638726324203  1.0000
  C   C5        1.0  0.673322289821158  0.4182031315030628  0.7185664082142225  1.0000
  C   C6        1.0  0.32667340932590616  0.08179835998667072  0.2185759480105745  1.0000
  C   C7        1.0  0.3266704310785259  0.5817881013718066  0.281427980359787  1.0000
  C   C8        1.0  0.6733282201952165  0.9182095778995109  0.7814238769522746  1.0000
  C   C9        1.0  0.5595928710112333  0.5259362816212559  0.6157270896611706  1.0000
  C   C10       1.0  0.44041891399765387  0.9740673855096987  0.1157314880317415  1.0000
  C   C11       1.0  0.4404177898197333  0.47405538664652613  0.38426639279852287  1.0000
  C   C12       1.0  0.5595958038750483  0.02594190057754281  0.8842701490208711  1.0000
  C   C13       1.0  0.4936841601223636  0.6149198934420214  0.5730338290571453  1.0000
  C   C14       1.0  0.5063180100637936  0.8850926828030837  0.0730383211000714  1.0000
  C   C15       1.0  0.5063098630380624  0.3850847681850952  0.4269614656075973  1.0000
  C   C16       1.0  0.493689129052001  0.11492363320284943  0.9269660341792233  1.0000
  C   C17       1.0  0.08480171378469953  0.7168474227225304  0.05138698440738661  1.0000
  C   C18       1.0  0.9151978436049295  0.7831609007286958  0.5513853430850943  1.0000
  C   C19       1.0  0.9151832089969788  0.28314774310528185  0.9486146526992699  1.0000
  C   C20       1.0  0.08481348903696075  0.21684521155852832  0.4486208242826066  1.0000
  C   C21       1.0  0.19561162250194294  0.7891484686224433  0.824758322614869  1.0000
  C   C22       1.0  0.8043899104110822  0.7108494150538506  0.3247584165165521  1.0000
  C   C23       1.0  0.8043867996992163  0.2108439331828366  0.1752442205079916  1.0000
  C   C24       1.0  0.19562036693793777  0.28915667162328174  0.6752486569167289  1.0000
  S   S1        1.0  0.02116198446952914  0.680184124516451  0.8970243123450458  1.0000
  S   S2        1.0  0.9788363334310617  0.8198149359411602  0.39702661691071484  1.0000
  S   S3        1.0  0.978829256252631  0.31980604188971284  0.1029727944183989  1.0000
  S   S4        1.0  0.0211743549799266  0.18018703851504372  0.6029813625740914  1.0000
  N   N1        1.0  0.6385619919868761  0.347360295962936  0.613305432255487  1.0000
  N   N2        1.0  0.36144537539644267  0.15264218260490034  0.1133087627559632  1.0000
  N   N3        1.0  0.36144699694786914  0.6526375150308112  0.3866907684113984  1.0000
  N   N4        1.0  0.6385558292519066  0.8473647144173315  0.8866892500805791  1.0000
  N   N5        1.0  0.6290192721873994  0.5247399843922196  0.7259910691230331  1.0000
  N   N6        1.0  0.3709867048438582  0.9752566701006771  0.22599316380370027  1.0000
  N   N7        1.0  0.370972818292188  0.4752522637365005  0.2740060376428701  1.0000
  N   N8        1.0  0.6290202011327041  0.024751395839970804  0.774004849018837  1.0000
  Cl  Cl1       1.0  0.6686710695065871  0.48124131291027794  0.062144196303677304  1.0000
  Cl  Cl2       1.0  0.33132499759182826  0.018750427168683408  0.5621628532198244  1.0000
  Cl  Cl3       1.0  0.33131808829601544  0.5187591084254422  0.9378429438024228  1.0000
  Cl  Cl4       1.0  0.6686804005618187  0.981246266144183  0.4378433141428815  1.0000
  O   O1        1.0  0.9141559857110124  0.7544548920215494  0.8763690708993009  1.0000
  O   O2        1.0  0.08584372846787156  0.7455420771398809  0.3763799035829223  1.0000
  O   O3        1.0  0.08583503569758483  0.2455321773975357  0.12361806916947418  1.0000
  O   O4        1.0  0.9141650548690381  0.2544577899943405  0.6236362304653156  1.0000
