data_image0
_chemical_formula_structural       Mg6H12C36O18
_chemical_formula_sum              "Mg6 H12 C36 O18"
_cell_length_a       6.872570400839582
_cell_length_b       19.47449943241743
_cell_length_c       19.474112525349412
_cell_angle_alpha    118.67466257677768
_cell_angle_beta     96.77454734025419
_cell_angle_gamma    96.74568879640012

_space_group_name_H-M_alt    "P 1"
_space_group_IT_number       1

loop_
  _space_group_symop_operation_xyz
  'x, y, z'

loop_
  _atom_site_type_symbol
  _atom_site_label
  _atom_site_symmetry_multiplicity
  _atom_site_fract_x
  _atom_site_fract_y
  _atom_site_fract_z
  _atom_site_occupancy
  Mg  Mg1       1.0  0.6261847527846953  0.6084371906261412  0.32466670092311023  1.0000
  Mg  Mg2       1.0  0.3014615869119482  0.6752745159427891  0.283901386656602  1.0000
  Mg  Mg3       1.0  0.017869443523416406  0.7161391739515537  0.3916642538003642  1.0000
  Mg  Mg4       1.0  0.3738150037582884  0.39156255760030945  0.6753327576679665  1.0000
  Mg  Mg5       1.0  0.6985361334953312  0.3247270244027477  0.7160993587608999  1.0000
  Mg  Mg6       1.0  0.9821309087705429  0.2838617691306241  0.6083363160453102  1.0000
  H   H1        1.0  0.202850338562378  0.5108234757475716  0.08926557463551898  1.0000
  H   H2        1.0  0.11364534943089681  0.9104755093397048  0.4216359550918582  1.0000
  H   H3        1.0  0.691984835169933  0.5783784292433511  0.4889376667255831  1.0000
  H   H4        1.0  0.905826444100988  0.565132475024008  0.06032757938389465  1.0000
  H   H5        1.0  0.8458868076897231  0.939932094146741  0.5049100776570583  1.0000
  H   H6        1.0  0.341024312355117  0.4951456911568359  0.4351326932941645  1.0000
  H   H7        1.0  0.7971555580345538  0.489173882204959  0.9107304290328243  1.0000
  H   H8        1.0  0.8863573360330221  0.08952423916581154  0.5783641403255331  1.0000
  H   H9        1.0  0.3080090652136462  0.42162131819585386  0.5110600046711723  1.0000
  H   H10       1.0  0.09418149335901663  0.4348660805586136  0.9396757596816911  1.0000
  H   H11       1.0  0.15411324084011113  0.06006825230947752  0.49509173395724565  1.0000
  H   H12       1.0  0.6589622514251516  0.504854057532164  0.5648677511411931  1.0000
  C   C1        1.0  0.5047508603347097  0.5651257600130464  0.15081164744682946  1.0000
  C   C2        1.0  0.354251230323584  0.8491491953068294  0.4144037104194567  1.0000
  C   C3        1.0  0.9398330765129683  0.585603643601317  0.43485179731523244  1.0000
  C   C4        1.0  0.3564970711941556  0.5220524204012024  0.0821858541789453  1.0000
  C   C5        1.0  0.2744500825231314  0.9176919648159727  0.4399412694545005  1.0000
  C   C6        1.0  0.8345162138261132  0.5600893612688084  0.47784832612808964  1.0000
  C   C7        1.0  0.3989030639861681  0.4925851606290692  0.004745963911318469  1.0000
  C   C8        1.0  0.39412393473855906  0.995193721012612  0.48785614778550707  1.0000
  C   C9        1.0  0.906284763189433  0.5121583642770065  0.5073572109338258  1.0000
  C   C10       1.0  0.6011105093524237  0.5074187685321263  0.9952550527300302  1.0000
  C   C11       1.0  0.6058746417596977  0.004806626335089001  0.5121476563532568  1.0000
  C   C12       1.0  0.09370649521266479  0.48784198180023014  0.49264371728492046  1.0000
  C   C13       1.0  0.7508972897756295  0.5518660946997828  0.06504838643086687  1.0000
  C   C14       1.0  0.6861664317804426  0.9350853559064661  0.4868444136301021  1.0000
  C   C15       1.0  0.19928270450657243  0.5131567906842279  0.4482756512280374  1.0000
  C   C16       1.0  0.7089620545975704  0.5803694859280881  0.14110843832439457  1.0000
  C   C17       1.0  0.5682693837974712  0.8589775924722434  0.4393252808165613  1.0000
  C   C18       1.0  0.12893339286135586  0.5606898985715104  0.4197367005974895  1.0000
  C   C19       1.0  0.8802253669079859  0.625496392810149  0.20951724855691364  1.0000
  C   C20       1.0  0.6711846659583217  0.7905684059943711  0.4161384914849433  1.0000
  C   C21       1.0  0.25503927929481307  0.5839572096356846  0.37463402615382785  1.0000
  C   C22       1.0  0.6435100202696733  0.47794732680456076  0.9178113449152149  1.0000
  C   C23       1.0  0.7255537910778144  0.08231017385924132  0.5600620755554786  1.0000
  C   C24       1.0  0.16547035668402543  0.43991038650373343  0.5221500641404971  1.0000
  C   C25       1.0  0.4952471355547843  0.43487339041688966  0.8491864235620953  1.0000
  C   C26       1.0  0.6457479220560814  0.15084935920946663  0.5855972046254933  1.0000
  C   C27       1.0  0.06015669671785417  0.41439371476381137  0.5651450689127769  1.0000
  C   C28       1.0  0.2910450267714567  0.4196302626523691  0.8588918420199292  1.0000
  C   C29       1.0  0.4317329995847885  0.14102155917819914  0.5606755428277665  1.0000
  C   C30       1.0  0.8710560917475475  0.43930686110562084  0.5802567855239074  1.0000
  C   C31       1.0  0.2491171447013443  0.44813664077623383  0.9349541483066658  1.0000
  C   C32       1.0  0.3138336133844533  0.0649149910079814  0.5131584250675871  1.0000
  C   C33       1.0  0.8007079648744124  0.4868423596208234  0.5517221115693333  1.0000
  C   C34       1.0  0.11977466006980823  0.3745009661880517  0.790481076250657  1.0000
  C   C35       1.0  0.32881245196811193  0.20943194041188928  0.5838631968447388  1.0000
  C   C36       1.0  0.7449575200453182  0.41603955177014046  0.6253633629709725  1.0000
  O   O1        1.0  0.05472572617709667  0.6417804997027192  0.1987232683300704  1.0000
  O   O2        1.0  0.8565078410729329  0.8013837783027714  0.4432583136202624  1.0000
  O   O3        1.0  0.41326622257017925  0.5568740952245648  0.3583261002060069  1.0000
  O   O4        1.0  0.8478321329118476  0.6466132922566745  0.2803354939547233  1.0000
  O   O5        1.0  0.567752337281391  0.7197435292277989  0.3665092672072277  1.0000
  O   O6        1.0  0.2012943699438666  0.6336159863873051  0.35353219362536237  1.0000
  O   O7        1.0  0.4550663902109307  0.5908636840760411  0.22299578500587808  1.0000
  O   O8        1.0  0.23236217554332936  0.7769451285790793  0.3680459723990522  1.0000
  O   O9        1.0  0.8643562875233499  0.6319651238195264  0.409060819954952  1.0000
  O   O10       1.0  0.9452772280391671  0.3582168598036689  0.8012762068455146  1.0000
  O   O11       1.0  0.14349074383766694  0.19861656789935728  0.556742922810038  1.0000
  O   O12       1.0  0.5867332285262067  0.44312505660504103  0.6416751136953921  1.0000
  O   O13       1.0  0.15216792234785717  0.3533870532830862  0.7196642634928095  1.0000
  O   O14       1.0  0.43224419330640257  0.2802556211771616  0.633488742159386  1.0000
  O   O15       1.0  0.7987106470075462  0.36638256777067124  0.6464679409054384  1.0000
  O   O16       1.0  0.5449351320329401  0.40913666125958076  0.7770035205422728  1.0000
  O   O17       1.0  0.7676408052723787  0.2230552176979829  0.6319554489581805  1.0000
  O   O18       1.0  0.13563940179563627  0.3680382079577457  0.5909396716639036  1.0000
