data_image0
_chemical_formula_structural       Cu4H20C36N12O16
_chemical_formula_sum              "Cu4 H20 C36 N12 O16"
_cell_length_a       4.761409700063648
_cell_length_b       11.194458637726905
_cell_length_c       20.20172648800607
_cell_angle_alpha    90.00000491287079
_cell_angle_beta     89.99991212426734
_cell_angle_gamma    98.7209423631661

_space_group_name_H-M_alt    "P 1"
_space_group_IT_number       1

loop_
  _space_group_symop_operation_xyz
  'x, y, z'

loop_
  _atom_site_type_symbol
  _atom_site_label
  _atom_site_symmetry_multiplicity
  _atom_site_fract_x
  _atom_site_fract_y
  _atom_site_fract_z
  _atom_site_occupancy
  Cu  Cu1       1.0  0.3141353625104201  0.4423492228063352  0.6594985362033583  1.0000
  Cu  Cu2       1.0  0.6858660637133481  0.05765179762256168  0.159497632011437  1.0000
  Cu  Cu3       1.0  0.6858633868168693  0.5576553181348487  0.3405029640647753  1.0000
  Cu  Cu4       1.0  0.31413669380629716  0.9423464106469834  0.8405028782414518  1.0000
  H   H1        1.0  0.3468979817745747  0.4144608893381444  0.913443656808823  1.0000
  H   H2        1.0  0.6530878520771992  0.08553646426129548  0.41344326055305913  1.0000
  H   H3        1.0  0.6531005226150413  0.5855255702437532  0.0865568534445771  1.0000
  H   H4        1.0  0.34689331090239506  0.9144717110269055  0.5865567546967156  1.0000
  H   H5        1.0  0.489393960356196  0.5169099133770345  0.8041019886712489  1.0000
  H   H6        1.0  0.5106074800487832  0.9830891113002806  0.304100670160544  1.0000
  H   H7        1.0  0.5106116873937906  0.483084675607948  0.19590000660263476  1.0000
  H   H8        1.0  0.4893906149540967  0.016913622150624995  0.6958998400932684  1.0000
  H   H9        1.0  0.5671626061820517  0.3124989997783203  0.554722294750384  1.0000
  H   H10       1.0  0.432856175208947  0.18750745477873915  0.05472049679755029  1.0000
  H   H11       1.0  0.43284729469960587  0.6875073378943739  0.44527920551578143  1.0000
  H   H12       1.0  0.5671464458500991  0.8124961781138749  0.9452795184482738  1.0000
  H   H13       1.0  0.2687718235014386  0.6433303382067306  0.5635300182725018  1.0000
  H   H14       1.0  0.7312304243127983  0.8566723649520469  0.0635291102884992  1.0000
  H   H15       1.0  0.731238077380219  0.3566759994659633  0.4364714819936637  1.0000
  H   H16       1.0  0.2687691158077214  0.14332855885666618  0.936471399965022  1.0000
  H   H17       1.0  0.005787501633292872  0.8999374615125431  0.43808039694256  1.0000
  H   H18       1.0  0.9941905548961001  0.6000516071672732  0.938079557682549  1.0000
  H   H19       1.0  0.9941879088477777  0.10004902173854191  0.5619230833581668  1.0000
  H   H20       1.0  0.005816074350363513  0.39994569305351046  0.06192095256962199  1.0000
  C   C1        1.0  0.08501461173381841  0.2695936593048671  0.7513981448329331  1.0000
  C   C2        1.0  0.9149855496342523  0.2304055301977356  0.2513996406450899  1.0000
  C   C3        1.0  0.9149758762858864  0.7304054656208689  0.24859989038618824  1.0000
  C   C4        1.0  0.08502803227426624  0.7695935710580527  0.7486013646130727  1.0000
  C   C5        1.0  0.9951186835838755  0.2176851844959059  0.8122571352161357  1.0000
  C   C6        1.0  0.004875102305831484  0.2823148996874423  0.3122584648993652  1.0000
  C   C7        1.0  0.004878893566704859  0.782310316842093  0.18773941498005087  1.0000
  C   C8        1.0  0.9951250921440221  0.717687831611741  0.6877415503468782  1.0000
  C   C9        1.0  0.2666784927846137  0.37394989911497584  0.866773896836584  1.0000
  C   C10       1.0  0.7333121771614017  0.12604836582737275  0.36677446348972603  1.0000
  C   C11       1.0  0.7333216474291716  0.6260410791931291  0.13322512839502554  1.0000
  C   C12       1.0  0.26667817438618596  0.8739561837209847  0.6332265417727142  1.0000
  C   C13       1.0  0.3472949634079043  0.43111637190713736  0.8067359456787244  1.0000
  C   C14       1.0  0.6527020765657809  0.06888099814523231  0.30673554886761417  1.0000
  C   C15       1.0  0.6527043860093684  0.5688782235333035  0.19326505958189696  1.0000
  C   C16       1.0  0.34729746355638  0.9311199256635446  0.6932644663787144  1.0000
  C   C17       1.0  0.02381808875200868  0.21194802617579706  0.68458752826362  1.0000
  C   C18       1.0  0.9761870425209833  0.2880520798062066  0.1845875194933839  1.0000
  C   C19       1.0  0.9761609747954053  0.7880601512646804  0.3154085269289553  1.0000
  C   C20       1.0  0.023843144258478246  0.7119406758675239  0.8154105157184759  1.0000
  C   C21       1.0  0.7963704024694565  0.09959446997923749  0.8201703534711198  1.0000
  C   C22       1.0  0.20362543029069965  0.40040561003418407  0.3201731017627338  1.0000
  C   C23       1.0  0.20362153067446076  0.9004028453045689  0.1798257017189187  1.0000
  C   C24       1.0  0.796374764150933  0.5995971212646865  0.6798293885194937  1.0000
  C   C25       1.0  0.5377136584642344  0.3960716508728125  0.5299561017100203  1.0000
  C   C26       1.0  0.4622986619538239  0.10393391270995517  0.029955279709611194  1.0000
  C   C27       1.0  0.4622986690266017  0.6039355883933054  0.470045398555733  1.0000
  C   C28       1.0  0.5377033047758742  0.8960679126921816  0.9700452305434908  1.0000
  C   C29       1.0  0.37322695285742197  0.57971705075402  0.5349646178874465  1.0000
  C   C30       1.0  0.6267746939363048  0.9202892768218899  0.0349637500585231  1.0000
  C   C31       1.0  0.6267821572359367  0.42029290405132974  0.4650363873717395  1.0000
  C   C32       1.0  0.3732222831144226  0.0797161700164608  0.9650362651883598  1.0000
  C   C33       1.0  0.0022636160109498907  0.962984411021104  0.4782269675767665  1.0000
  C   C34       1.0  0.9977348953450614  0.5370154751492179  0.9782246393926995  1.0000
  C   C35       1.0  0.9977337704248725  0.0370047619481753  0.5217735426768897  1.0000
  C   C36       1.0  0.0022723882208807436  0.4629836325616522  0.0217783458953775  1.0000
  N   N1        1.0  0.2563721090613029  0.3770162698427767  0.7501729735078653  1.0000
  N   N2        1.0  0.743630159896071  0.12298291782067138  0.2501730413238619  1.0000
  N   N3        1.0  0.7436225778457838  0.6229828507792803  0.24982605172489508  1.0000
  N   N4        1.0  0.256383422014096  0.8770161834351808  0.7498274689270943  1.0000
  N   N5        1.0  0.08918464437599025  0.2695803290284429  0.8697256544293949  1.0000
  N   N6        1.0  0.9108042336808637  0.23041884105822413  0.36972566671948925  1.0000
  N   N7        1.0  0.9108175952864244  0.7304106471280036  0.1302723807874528  1.0000
  N   N8        1.0  0.0891825733086904  0.769587520284297  0.6302738535220342  1.0000
  N   N9        1.0  0.41207811327226546  0.47586075672590766  0.5644462473735246  1.0000
  N   N10       1.0  0.5879318785742598  0.0241448002133424  0.0644443869251177  1.0000
  N   N11       1.0  0.5879321147699486  0.5241464846918618  0.4355562429069906  1.0000
  N   N12       1.0  0.41206798871174727  0.9758570273406445  0.9355556283211613  1.0000
  O   O1        1.0  0.1296307045073277  0.27680680884112263  0.6347269207108751  1.0000
  O   O2        1.0  0.8703771846122377  0.22319421144927526  0.13472793722937837  1.0000
  O   O3        1.0  0.8703448144705419  0.7232031803930781  0.3652711145111667  1.0000
  O   O4        1.0  0.1296494575960239  0.776800356018107  0.8652725730191475  1.0000
  O   O5        1.0  0.8898899336547359  0.10791472318868502  0.6799788536370314  1.0000
  O   O6        1.0  0.11011877279551638  0.39208357217452766  0.1799796551214712  1.0000
  O   O7        1.0  0.11008283156655085  0.8920934607075137  0.32001423151348957  1.0000
  O   O8        1.0  0.8899269008945153  0.6079055513042845  0.8200173900731398  1.0000
  O   O9        1.0  0.5311101475975804  0.1041607259820267  0.8124794743607779  1.0000
  O   O10       1.0  0.4688854090970764  0.3958384522476592  0.3124806422171459  1.0000
  O   O11       1.0  0.4688866387564801  0.8958383924883079  0.1875190558644135  1.0000
  O   O12       1.0  0.5311134766793015  0.6041606640700151  0.6875248181084217  1.0000
  O   O13       1.0  0.8943515235376369  0.007649407671124199  0.8393271124812711  1.0000
  O   O14       1.0  0.10564982595932552  0.4923488535110749  0.33933187981516966  1.0000
  O   O15       1.0  0.10564329984156022  0.9923442883283045  0.16066894270817758  1.0000
  O   O16       1.0  0.8943542402140634  0.507652969739226  0.6606691254447554  1.0000
