data_image0
_chemical_formula_structural       Zn6H34C58O27
_chemical_formula_sum              "Zn6 H34 C58 O27"
_cell_length_a       18.5930905489562
_cell_length_b       18.781453311866482
_cell_length_c       18.86563366468533
_cell_angle_alpha    109.68544121138545
_cell_angle_beta     109.28745732613139
_cell_angle_gamma    109.11199346360178

_space_group_name_H-M_alt    "P 1"
_space_group_IT_number       1

loop_
  _space_group_symop_operation_xyz
  'x, y, z'

loop_
  _atom_site_type_symbol
  _atom_site_label
  _atom_site_symmetry_multiplicity
  _atom_site_fract_x
  _atom_site_fract_y
  _atom_site_fract_z
  _atom_site_occupancy
  Zn  Zn1       1.0  0.505000709973565  0.9393142926679585  0.939644159335124  1.0000
  Zn  Zn2       1.0  0.5029079160773547  0.0637553545791079  0.06268910836828917  1.0000
  Zn  Zn3       1.0  0.06222316601871109  0.06265164952593238  0.5032027720675245  1.0000
  Zn  Zn4       1.0  0.9377043017369927  0.9357273441438776  0.5002308374927081  1.0000
  Zn  Zn5       1.0  0.06506542846886987  0.49638542482762915  0.060505293032250086  1.0000
  Zn  Zn6       1.0  0.9416182254609993  0.5009229410729786  0.9392910903866253  1.0000
  H   H1        1.0  0.905317591283989  0.14967472202810234  0.3395314610023804  1.0000
  H   H2        1.0  0.8997285656506051  0.1798631190633841  0.9949077611250773  1.0000
  H   H3        1.0  0.777644060681716  0.9621723851176607  0.28299975127439564  1.0000
  H   H4        1.0  0.9507325558809895  0.2353967737385076  0.11030131869694065  1.0000
  H   H5        1.0  0.767308135858208  0.0729160724625402  0.98483044115617  1.0000
  H   H6        1.0  0.8200003134292188  0.1260727804613708  0.1001439339313634  1.0000
  H   H7        1.0  0.8208340445065545  0.09647193500848057  0.617521452708921  1.0000
  H   H8        1.0  0.8235270662847965  0.22496898879500543  0.7162531342139504  1.0000
  H   H9        1.0  0.16680920837094956  0.4126520218628967  0.847572050737007  1.0000
  H   H10       1.0  0.1710424297736424  0.36875487403627  0.9187722394854633  1.0000
  H   H11       1.0  0.16536082492331156  0.2858519851260936  0.7436736555329162  1.0000
  H   H12       1.0  0.411120102701247  0.1279595642058737  0.8521694357996952  1.0000
  H   H13       1.0  0.16786731057953827  0.24046918433852224  0.8132398928786985  1.0000
  H   H14       1.0  0.9534046924452397  0.6996803770463484  0.3451076323188289  1.0000
  H   H15       1.0  0.7543624597393402  0.12846568736318886  0.243752962263514  1.0000
  H   H16       1.0  0.960459995226614  0.5975380803619996  0.22704725140627582  1.0000
  H   H17       1.0  0.03612680954169883  0.8308064441460485  0.12320801778394483  1.0000
  H   H18       1.0  0.9195924071150188  0.7732845245890797  0.05685229325842289  1.0000
  H   H19       1.0  0.02632508932031637  0.9355301681350309  0.2392730910573916  1.0000
  H   H20       1.0  0.7307398133676486  0.948876592732432  0.13629365655450698  1.0000
  H   H21       1.0  0.34655609249698943  0.9197243870412847  0.1600717584368994  1.0000
  H   H22       1.0  0.2464691996148574  0.7973031142757206  0.16323925797099997  1.0000
  H   H23       1.0  0.30845450810349456  0.14277308046435172  0.7425711443377594  1.0000
  H   H24       1.0  0.22855944621731789  0.5645205220038247  0.8890449983244154  1.0000
  H   H25       1.0  0.34338585530451843  0.686372403165997  0.9005439664592318  1.0000
  H   H26       1.0  0.2367515049933573  0.7452245299077018  0.8256162514793673  1.0000
  H   H27       1.0  0.8257412058669685  0.8041470171386677  0.12842186591350924  1.0000
  H   H28       1.0  0.09704720004186382  0.6210766476215851  0.8098410076338782  1.0000
  H   H29       1.0  0.06320108717573446  0.8168725861208086  0.6153124345259187  1.0000
  H   H30       1.0  0.10874882200128164  0.7965791313558624  0.5459127991777138  1.0000
  H   H31       1.0  0.17069902986509794  0.7993164006258553  0.7198912719779004  1.0000
  H   H32       1.0  0.2173820406525734  0.779319918391259  0.6514544849536179  1.0000
  H   H33       1.0  0.6522854447083403  0.3015945011639046  0.03876804612977478  1.0000
  H   H34       1.0  0.7740654980183805  0.3999815418967713  0.03241927435803396  1.0000
  C   C1        1.0  0.3956345136900766  0.9114826991444004  0.034583861645252546  1.0000
  C   C2        1.0  0.33164517646118685  0.9889745227899166  0.7925130954513903  1.0000
  C   C3        1.0  0.34985313589264416  0.0704124900010115  0.7981668240786776  1.0000
  C   C4        1.0  0.6330619334805051  0.988012794613411  0.09035985544770139  1.0000
  C   C5        1.0  0.2915349530790152  0.07899857895515786  0.7368229447742892  1.0000
  C   C6        1.0  0.20916690326441767  0.0073061556097329  0.6690869811009039  1.0000
  C   C7        1.0  0.19222635331930604  0.9272383633313551  0.6639511708066124  1.0000
  C   C8        1.0  0.12460261007719708  0.831476817255506  0.6135946846978655  1.0000
  C   C9        1.0  0.19293118305893822  0.8206255569748887  0.6797073136390067  1.0000
  C   C10       1.0  0.7709438854424988  0.19861501387730837  0.0438032508002024  1.0000
  C   C11       1.0  0.7006250844833843  0.21174046434107643  0.040307162298674364  1.0000
  C   C12       1.0  0.33468870379227417  0.8405664552720395  0.038990412859732315  1.0000
  C   C13       1.0  0.7053766840244152  0.2881376653325986  0.0402541595892387  1.0000
  C   C14       1.0  0.7744735666207987  0.34411745818636047  0.03782648236244771  1.0000
  C   C15       1.0  0.8455112708370721  0.3302769096578615  0.041336308061147554  1.0000
  C   C16       1.0  0.6229419797897577  0.14493539998593258  0.0315830621215341  1.0000
  C   C17       1.0  0.843081053834183  0.2577975856939786  0.047493041512318326  1.0000
  C   C18       1.0  0.8889182996786218  0.20428733457861625  0.049953896409668706  1.0000
  C   C19       1.0  0.8064517135529954  0.1365760290911879  0.044358606598528645  1.0000
  C   C20       1.0  0.9654714540360272  0.08402340284840899  0.6127636789379167  1.0000
  C   C21       1.0  0.9100589308136616  0.026796154010000392  0.3875352647458357  1.0000
  C   C22       1.0  0.9707021379769926  0.8598265616280967  0.37743593948666654  1.0000
  C   C23       1.0  0.31564421178043034  0.8535609534599118  0.10713000081575076  1.0000
  C   C24       1.0  0.14127464121726518  0.0156313816267399  0.6089601534285479  1.0000
  C   C25       1.0  0.9736439083067905  0.610554601058574  0.09280201469577053  1.0000
  C   C26       1.0  0.14582228745212686  0.6227894685207714  0.033881851764952765  1.0000
  C   C27       1.0  0.9707649026435873  0.37830839343934014  0.858799109400124  1.0000
  C   C28       1.0  0.3921988892035627  0.9822452014476467  0.8617684182354852  1.0000
  C   C29       1.0  0.9140560790602592  0.38853022459392145  0.03251220821781688  1.0000
  C   C30       1.0  0.03953254716927996  0.22989947086636411  0.7421340338706912  1.0000
  C   C31       1.0  0.9616076305516611  0.15452011378062738  0.6751788404138994  1.0000
  C   C32       1.0  0.883616560832067  0.15402527577661118  0.6687210693431213  1.0000
  C   C33       1.0  0.8851341549762637  0.22665091141833218  0.7248840435835932  1.0000
  C   C34       1.0  0.25875627708570886  0.7840207127748398  0.10876567553751221  1.0000
  C   C35       1.0  0.9646768671732957  0.30174842199098606  0.7935326182037344  1.0000
  C   C36       1.0  0.041062527388248816  0.3000727655900021  0.8008056458931067  1.0000
  C   C37       1.0  0.14017504172640827  0.3530643901369074  0.8509114669575768  1.0000
  C   C38       1.0  0.13853199883108397  0.2729934240385958  0.784606771877023  1.0000
  C   C39       1.0  0.9686026198121521  0.8070143036050009  0.23459824232882903  1.0000
  C   C40       1.0  0.8450810560437388  0.08672004993247379  0.2997416844698577  1.0000
  C   C41       1.0  0.964182817740948  0.7930505370293941  0.3014558126007714  1.0000
  C   C42       1.0  0.9582257346437328  0.7141724120218881  0.29500986410203484  1.0000
  C   C43       1.0  0.9612701260135667  0.6561441280861117  0.22789911102925228  1.0000
  C   C44       1.0  0.9656353255787523  0.6711355748584108  0.1606626663420628  1.0000
  C   C45       1.0  0.21537130654113676  0.6977541680182213  0.04076494719846125  1.0000
  C   C46       1.0  0.9672492055158841  0.7472251586140856  0.16538284904697056  1.0000
  C   C47       1.0  0.9738586520550424  0.802421824871544  0.12251731414629312  1.0000
  C   C48       1.0  0.9704499806241456  0.8691735811823944  0.19918819929564083  1.0000
  C   C49       1.0  0.8398775843618864  0.0223574161353497  0.31786919568785527  1.0000
  C   C50       1.0  0.7688318948376959  0.0749354649859129  0.23161810937763513  1.0000
  C   C51       1.0  0.7143201332143434  0.0005266426975155  0.15459129540364808  1.0000
  C   C52       1.0  0.2933561686010151  0.7541909280299137  0.9735211732888801  1.0000
  C   C53       1.0  0.8853448885134584  0.8699746508412927  0.16468207175702776  1.0000
  C   C54       1.0  0.12027339375256216  0.5743876162815623  0.8159880710021241  1.0000
  C   C55       1.0  0.23475735476365853  0.6858223779457472  0.9738190122428351  1.0000
  C   C56       1.0  0.21241527221146578  0.6154925092477156  0.8876769752507414  1.0000
  C   C57       1.0  0.28538183833809677  0.6943994974239727  0.8899329237843148  1.0000
  C   C58       1.0  0.25261934964632354  0.9178112715632663  0.7222768429614774  1.0000
  O   O1        1.0  0.41799138211192144  0.8868508207416709  0.9779614483997465  1.0000
  O   O2        1.0  0.927304071164876  0.5901333444234637  0.01362310821063764  1.0000
  O   O3        1.0  0.1691789756063001  0.5935169877432215  0.08478738697392874  1.0000
  O   O4        1.0  0.4213407488365988  0.9913067913379903  0.08599468776140634  1.0000
  O   O5        1.0  0.06841208417823443  0.5933859181542046  0.9758177824540938  1.0000
  O   O6        1.0  0.03304407089736122  0.41478995626163595  0.9360300413988514  1.0000
  O   O7        1.0  0.9152723079324403  0.40404498765707325  0.8354235125738044  1.0000
  O   O8        1.0  0.9942133469304649  0.4075487604335989  0.07667801925119731  1.0000
  O   O9        1.0  0.889103147219437  0.41634357385544246  0.9816280184325523  1.0000
  O   O10       1.0  0.5994502681479617  0.9291792778502522  0.010598588272728205  1.0000
  O   O11       1.0  0.6007357586611803  0.034664407979093384  0.1163286742762537  1.0000
  O   O12       1.0  0.9108632230586055  0.0035307066425218987  0.5816678196082777  1.0000
  O   O13       1.0  0.5947918505620251  0.06674436387981332  0.9770873429215002  1.0000
  O   O14       1.0  0.5902941409083766  0.16967348637063395  0.07946468230849754  1.0000
  O   O15       1.0  0.41680127882863616  0.9259330018161761  0.8378532698664573  1.0000
  O   O16       1.0  0.4144902275407745  0.032134301223891285  0.9392982671718999  1.0000
  O   O17       1.0  0.025837450022919508  0.10963230382058238  0.5946628709521421  1.0000
  O   O18       1.0  0.26244726197482743  0.7075842723478727  0.818244126551143  1.0000
  O   O19       1.0  0.8784667906868363  0.934193726530303  0.17238299750315622  1.0000
  O   O20       1.0  0.07240444489503517  0.4962356960194895  0.7673091285976881  1.0000
  O   O21       1.0  0.9907304824223783  0.08422975575061999  0.42069641024379917  1.0000
  O   O22       1.0  0.8846003909605925  0.9707527656979946  0.4101804311229173  1.0000
  O   O23       1.0  0.023679261205913283  0.9384090380296043  0.40492926535225143  1.0000
  O   O24       1.0  0.92288735965694  0.8333286456948484  0.4091700091553037  1.0000
  O   O25       1.0  0.1660296696467327  0.07372378578745038  0.5872558797555743  1.0000
  O   O26       1.0  0.06207632585236672  0.9634697378081964  0.5825774983315384  1.0000
  O   O27       1.0  0.02609956516351995  0.5838590251148047  0.11815326839624163  1.0000
