data_image0
_chemical_formula_structural       Y2P2H48C78O12
_chemical_formula_sum              "Y2 P2 H48 C78 O12"
_cell_length_a       6.936863991594153
_cell_length_b       17.82479136371188
_cell_length_c       17.825216674310422
_cell_angle_alpha    100.60150316293291
_cell_angle_beta     99.85832366706796
_cell_angle_gamma    99.85963541448157

_space_group_name_H-M_alt    "P 1"
_space_group_IT_number       1

loop_
  _space_group_symop_operation_xyz
  'x, y, z'

loop_
  _atom_site_type_symbol
  _atom_site_label
  _atom_site_symmetry_multiplicity
  _atom_site_fract_x
  _atom_site_fract_y
  _atom_site_fract_z
  _atom_site_occupancy
  Y   Y1        1.0  0.7879343832221293  0.5049393245012439  0.4760485693759548  1.0000
  Y   Y2        1.0  0.28793495710751665  0.47604538852990425  0.5049442145830056  1.0000
  P   P1        1.0  0.2813743557266121  0.07848979251406263  0.9296297028108428  1.0000
  P   P2        1.0  0.7813711631798483  0.929628147897745  0.07848309176099387  1.0000
  H   H1        1.0  0.6415759464303221  0.08510215066294793  0.8529301757035765  1.0000
  H   H2        1.0  0.14157306236131736  0.8529250350932501  0.08509882060666736  1.0000
  H   H3        1.0  0.11503054965386655  0.9187673139482159  0.8574678105939738  1.0000
  H   H4        1.0  0.6150398140326558  0.8574682900829134  0.9187706999552034  1.0000
  H   H5        1.0  0.42718793941208577  0.2534418577723585  0.9672401513978384  1.0000
  H   H6        1.0  0.9271660299181974  0.967233485073841  0.2534259786164128  1.0000
  H   H7        1.0  0.6453254504808185  0.0507826824516471  0.016459317357536883  1.0000
  H   H8        1.0  0.14533181553196067  0.0164640396176736  0.0507795686610493  1.0000
  H   H9        1.0  0.004489913782649112  0.17730400648532202  0.9555335613962013  1.0000
  H   H10       1.0  0.5044841204983899  0.9555347905890844  0.1772931158765019  1.0000
  H   H11       1.0  0.30231131662146277  0.10834502261320722  0.7683937895494493  1.0000
  H   H12       1.0  0.8023024910776897  0.7683886714787889  0.10833897488444673  1.0000
  H   H13       1.0  0.7310333048719286  0.9872992044813814  0.7558353594025531  1.0000
  H   H14       1.0  0.231041161977828  0.7558354360548095  0.9872942377049654  1.0000
  H   H15       1.0  0.2062677648560723  0.820178554714154  0.7607304443443681  1.0000
  H   H16       1.0  0.7062790281881134  0.7607321014711418  0.8201809662725522  1.0000
  H   H17       1.0  0.7231639616458807  0.3386767364409096  0.059116048284281006  1.0000
  H   H18       1.0  0.22314757227189116  0.05910421215621402  0.3386633657627698  1.0000
  H   H19       1.0  0.9408496329288027  0.13598753577429792  0.1064553790416696  1.0000
  H   H20       1.0  0.4408573663737769  0.10645675112599662  0.1359872552301979  1.0000
  H   H21       1.0  0.8368197907737451  0.2582862667817166  0.8794771962647445  1.0000
  H   H22       1.0  0.3368180432099166  0.879478447330321  0.25827796423265426  1.0000
  H   H23       1.0  0.12578673070502333  0.18600899201033633  0.69034535640683  1.0000
  H   H24       1.0  0.6257899262370403  0.6903424586119727  0.18600875193428829  1.0000
  H   H25       1.0  0.8505114313979191  0.37556037080882027  0.19383205012969998  1.0000
  H   H26       1.0  0.35049434462803225  0.19382012637698415  0.37555518003608057  1.0000
  H   H27       1.0  0.2399082542895385  0.2236645694668837  0.12212748091666009  1.0000
  H   H28       1.0  0.7399089491524508  0.12212987900267795  0.2236608254976744  1.0000
  H   H29       1.0  0.12634376303038414  0.4535970401279528  0.3005347544618359  1.0000
  H   H30       1.0  0.6263254239826422  0.3005232010155154  0.4535980899190477  1.0000
  H   H31       1.0  0.5168499623369129  0.303466597112653  0.2294207038197129  1.0000
  H   H32       1.0  0.01684487047290872  0.2294243109906731  0.3034702712343176  1.0000
  H   H33       1.0  0.2241641952484842  0.7820423116137505  0.6338466736081401  1.0000
  H   H34       1.0  0.7241575207990109  0.6338476941611333  0.7820429453432636  1.0000
  H   H35       1.0  0.8488916173682384  0.8762892737491016  0.7377893407938458  1.0000
  H   H36       1.0  0.34888631099082795  0.7377908392821125  0.8762866108473657  1.0000
  H   H37       1.0  0.3144466371169159  0.6734464051677094  0.5499626627747674  1.0000
  H   H38       1.0  0.8144350236858172  0.5499603318114339  0.6734488164643935  1.0000
  H   H39       1.0  0.9369184415412802  0.7662735360570354  0.6521014885844778  1.0000
  H   H40       1.0  0.436914240949463  0.6520993138599566  0.7662719857701744  1.0000
  H   H41       1.0  0.5930432959367239  0.253489602408962  0.7824886052323307  1.0000
  H   H42       1.0  0.09304041364855928  0.7824891760492036  0.2534905165759227  1.0000
  H   H43       1.0  0.08611576563453845  0.3022510777881778  0.6672525368560683  1.0000
  H   H44       1.0  0.5861160559470662  0.6672528074644859  0.3022459580887115  1.0000
  H   H45       1.0  0.4033375126719749  0.3270656251999072  0.7022559965890665  1.0000
  H   H46       1.0  0.9033453516930477  0.70225820543439  0.3270718684671436  1.0000
  H   H47       1.0  0.8945301487328974  0.3740359962741309  0.5877233852120654  1.0000
  H   H48       1.0  0.3945362686140257  0.5877232166441858  0.3740360308099753  1.0000
  C   C1        1.0  0.3687213167698077  0.0096355419871941  0.8607001753203178  1.0000
  C   C2        1.0  0.8687211379608116  0.8606965541897865  0.0096335171962423  1.0000
  C   C3        1.0  0.5130212014631609  0.14569601415180952  0.9846381446773195  1.0000
  C   C4        1.0  0.01301201587212849  0.9846383508333503  0.14568551224534326  1.0000
  C   C5        1.0  0.1672003917658245  0.13731261932971955  0.8678765123163571  1.0000
  C   C6        1.0  0.6671843618377478  0.8678734254079572  0.13730388439040547  1.0000
  C   C7        1.0  0.5441119551633448  0.027337707380880306  0.8323524997952845  1.0000
  C   C8        1.0  0.044112931415867425  0.8323484909937663  0.02733485549477877  1.0000
  C   C9        1.0  0.24812348720882943  0.9343282495904929  0.8338836123914104  1.0000
  C   C10       1.0  0.7481298869045077  0.8338809670547535  0.9343296983017237  1.0000
  C   C11       1.0  0.539124869738508  0.2272629242410744  0.9977479196920455  1.0000
  C   C12       1.0  0.03910882581107724  0.9977428194006922  0.2272501522827497  1.0000
  C   C13       1.0  0.6618271575666556  0.11397777645325391  0.024241173495305215  1.0000
  C   C14       1.0  0.16182447125121507  0.024242016751649904  0.1139700129163046  1.0000
  C   C15       1.0  0.033864939236380634  0.17986530888563831  0.8977472252575892  1.0000
  C   C16       1.0  0.5338605548749841  0.8977446391728138  0.17985547281153197  1.0000
  C   C17       1.0  0.20039403211011125  0.14118294928870515  0.7930600907798109  1.0000
  C   C18       1.0  0.7003853913064474  0.7930540908933851  0.14117565224777454  1.0000
  C   C19       1.0  0.5957936382984528  0.971679402725492  0.7779817779000666  1.0000
  C   C20       1.0  0.09579932166478507  0.7779788789678933  0.9716756874257584  1.0000
  C   C21       1.0  0.29898715015762184  0.8788965736786737  0.7790068569146837  1.0000
  C   C22       1.0  0.798990157654856  0.7790047089342877  0.8788970705338741  1.0000
  C   C23       1.0  0.7062783783474629  0.2754768728486496  0.0500820991498969  1.0000
  C   C24       1.0  0.20626386435434796  0.0500735312560607  0.275466402367897  1.0000
  C   C25       1.0  0.8296328308188234  0.1622164653175417  0.07552552995876029  1.0000
  C   C26       1.0  0.3296259835567382  0.07552554376383111  0.16221075047394604  1.0000
  C   C27       1.0  0.9367556228854781  0.22484270784230637  0.8541707721376637  1.0000
  C   C28       1.0  0.4367461829129412  0.8541710828917248  0.22483200995782232  1.0000
  C   C29       1.0  0.10120096992334032  0.1855161161043526  0.749106089262753  1.0000
  C   C30       1.0  0.601188537286312  0.7491031027209802  0.1855105633264102  1.0000
  C   C31       1.0  0.4736511863896454  0.896535385871431  0.7498794595122291  1.0000
  C   C32       1.0  0.9736559804326106  0.7498764046140922  0.8965342941579947  1.0000
  C   C33       1.0  0.853985817591152  0.24400412033732283  0.09051931351324784  1.0000
  C   C34       1.0  0.3539776397782858  0.0905135088492699  0.24399553102417568  1.0000
  C   C35       1.0  0.9662157395821891  0.22768842806879525  0.7785231404972349  1.0000
  C   C36       1.0  0.4662099326897788  0.7785193089134452  0.22767944487853947  1.0000
  C   C37       1.0  0.024794381678951535  0.2939709799223921  0.14978539720715386  1.0000
  C   C38       1.0  0.5247878645996734  0.14978151146100774  0.2939660088375078  1.0000
  C   C39       1.0  0.997216229058843  0.3603348523394344  0.1998838067168265  1.0000
  C   C40       1.0  0.497212140636428  0.19987745514288244  0.36033448227529147  1.0000
  C   C41       1.0  0.2145264092688564  0.2744127484960757  0.16074669234544095  1.0000
  C   C42       1.0  0.7145255637736199  0.16074729639179003  0.2744119256421484  1.0000
  C   C43       1.0  0.15152141011596146  0.4040085122761425  0.2604806724928466  1.0000
  C   C44       1.0  0.651507093287698  0.2604740536410404  0.40400709627847675  1.0000
  C   C45       1.0  0.3706644938103948  0.3190783109187549  0.22039576414803713  1.0000
  C   C46       1.0  0.8706550699725922  0.22039452932687453  0.3190782012604672  1.0000
  C   C47       1.0  0.3389288972557906  0.38343403172079604  0.2716020407638523  1.0000
  C   C48       1.0  0.8389221358425585  0.27160063185643685  0.38343690469832836  1.0000
  C   C49       1.0  0.4983804724539169  0.42625992053332606  0.3395221503776185  1.0000
  C   C50       1.0  0.9983684957155033  0.3395164734372003  0.4262661899450109  1.0000
  C   C51       1.0  0.5290686686716413  0.8362735536428546  0.6938209161248209  1.0000
  C   C52       1.0  0.029063493029006855  0.6938203902342508  0.8362737502112407  1.0000
  C   C53       1.0  0.3810945363798695  0.7788809190218728  0.6390750796959919  1.0000
  C   C54       1.0  0.8810880591608168  0.6390726812808439  0.7788802162934516  1.0000
  C   C55       1.0  0.7310826350456169  0.8325781261974614  0.6960422653573347  1.0000
  C   C56       1.0  0.2310783188222061  0.6960383274008706  0.8325751432981717  1.0000
  C   C57       1.0  0.4315028557093257  0.7177172261898122  0.591244770627753  1.0000
  C   C58       1.0  0.931489177223227  0.5912437242301819  0.7177175701236249  1.0000
  C   C59       1.0  0.781602347774829  0.7713369893741626  0.6483495520415231  1.0000
  C   C60       1.0  0.2815903779816581  0.6483469438227802  0.7713356643436668  1.0000
  C   C61       1.0  0.6325131841473138  0.7124251590725734  0.5968496783519013  1.0000
  C   C62       1.0  0.13250690279766533  0.5968465652721805  0.7124252653794371  1.0000
  C   C63       1.0  0.6893766800045354  0.6434290582045179  0.5534130160058978  1.0000
  C   C64       1.0  0.1893686281474984  0.5534091238054657  0.6434304546558564  1.0000
  C   C65       1.0  0.8545266112813223  0.2720941088493234  0.7310754157760327  1.0000
  C   C66       1.0  0.3545173491017054  0.7310739563168129  0.2720899976193323  1.0000
  C   C67       1.0  0.661239813693008  0.2805181779956953  0.7405892205600324  1.0000
  C   C68       1.0  0.16124419857063554  0.7405865999412954  0.2805189708971695  1.0000
  C   C69       1.0  0.9359677883337978  0.30651122064869435  0.6753536436842464  1.0000
  C   C70       1.0  0.4359646636139871  0.6753520225767033  0.30650817699184774  1.0000
  C   C71       1.0  0.5530642467120328  0.3207947012257009  0.6952850717178263  1.0000
  C   C72       1.0  0.053064853039998826  0.6952857640640817  0.32079535103788  1.0000
  C   C73       1.0  0.828740464314528  0.347518777623513  0.6302857120328724  1.0000
  C   C74       1.0  0.32874513787273674  0.6302865714876517  0.3475165811437079  1.0000
  C   C75       1.0  0.6353390781341941  0.3542600501169204  0.6394686927896487  1.0000
  C   C76       1.0  0.13534507924929073  0.6394686274285206  0.3542634272165514  1.0000
  C   C77       1.0  0.5134729611929602  0.3943112936195022  0.5905326073622419  1.0000
  C   C78       1.0  0.01346980141268262  0.5905309093120791  0.3943157776715792  1.0000
  O   O1        1.0  0.6804020489034812  0.4236854730243493  0.3427177044484821  1.0000
  O   O2        1.0  0.18038972273529202  0.34271043129423623  0.4236906968859913  1.0000
  O   O3        1.0  0.44910040366728765  0.46782870965500917  0.39864208574515897  1.0000
  O   O4        1.0  0.9490987304267835  0.3986378041950546  0.46783565502694546  1.0000
  O   O5        1.0  0.8700095399513684  0.641088606880274  0.552236300289394  1.0000
  O   O6        1.0  0.37000596014734555  0.5522339907993941  0.6410918005474001  1.0000
  O   O7        1.0  0.5505202464654103  0.5828181376036242  0.5170980475971446  1.0000
  O   O8        1.0  0.05051754964333108  0.5170972026225726  0.5828207345955789  1.0000
  O   O9        1.0  0.5953925792651232  0.4353400715143535  0.5460316551674821  1.0000
  O   O10       1.0  0.0954004862330892  0.5460298135140179  0.4353435256755062  1.0000
  O   O11       1.0  0.32958346409790806  0.3895836966073034  0.5906533042955429  1.0000
  O   O12       1.0  0.8295982801340569  0.5906517583265867  0.3895887437596953  1.0000
