data_image0
_chemical_formula_structural       Cu4Mo8H32C44N8O30
_chemical_formula_sum              "Cu4 Mo8 H32 C44 N8 O30"
_cell_length_a       10.850624747568167
_cell_length_b       11.719588510348315
_cell_length_c       13.5584
_cell_angle_alpha    98.03612775566995
_cell_angle_beta     102.53972378306537
_cell_angle_gamma    117.49535191585706

_space_group_name_H-M_alt    "P 1"
_space_group_IT_number       1

loop_
  _space_group_symop_operation_xyz
  'x, y, z'

loop_
  _atom_site_type_symbol
  _atom_site_label
  _atom_site_symmetry_multiplicity
  _atom_site_fract_x
  _atom_site_fract_y
  _atom_site_fract_z
  _atom_site_occupancy
  Cu  Cu1       1.0  0.4712766931520136  0.28965460097516177  0.09315021280022512  1.0000
  Cu  Cu2       1.0  0.5287203667128041  0.7103400174896635  0.9068470034306769  1.0000
  Cu  Cu3       1.0  0.9968631856082056  0.030617474161815008  0.3177876341955468  1.0000
  Cu  Cu4       1.0  0.0031389401209054296  0.9693811489428796  0.6822087335199781  1.0000
  Mo  Mo1       1.0  0.31693533701916016  0.3107300194755993  0.3038147737239996  1.0000
  Mo  Mo2       1.0  0.6830682506782538  0.6892746105889103  0.6961899493869552  1.0000
  Mo  Mo3       1.0  0.421651190636645  0.6112261817514621  0.48909314992772585  1.0000
  Mo  Mo4       1.0  0.5783469454395843  0.3887754448331364  0.5109065752480149  1.0000
  Mo  Mo5       1.0  0.23250634936122344  0.3323280434796771  0.5369472662632759  1.0000
  Mo  Mo6       1.0  0.7674895532329347  0.6676695784650449  0.4630523244700271  1.0000
  Mo  Mo7       1.0  0.4981979181547659  0.5926046063342341  0.24498643524030686  1.0000
  Mo  Mo8       1.0  0.5017975986825008  0.4073940167704606  0.7550220600454908  1.0000
  H   H1        1.0  0.1669521882229361  0.09491196734969523  0.0669780335959658  1.0000
  H   H2        1.0  0.8330463336101845  0.9050886580749379  0.9330216376291318  1.0000
  H   H3        1.0  0.9524591942778288  0.12805336579252471  0.050258047058676404  1.0000
  H   H4        1.0  0.04753988592581501  0.871948260792074  0.9497433172648755  1.0000
  H   H5        1.0  0.1592912317043442  0.4452428693859716  0.9105424093987864  1.0000
  H   H6        1.0  0.8407102951246302  0.5547597583585997  0.08945950101791315  1.0000
  H   H7        1.0  0.37203521362270925  0.40988990857235313  0.9426207890013316  1.0000
  H   H8        1.0  0.6279651964652189  0.59011071685228  0.05737994786891682  1.0000
  H   H9        1.0  0.6579276251491423  0.2844115262192446  0.9690796233759328  1.0000
  H   H10       1.0  0.3420708966839784  0.7155890992053886  0.03092152294946972  1.0000
  H   H11       1.0  0.059992862704604084  0.37016488217555843  0.19420660206623808  1.0000
  H   H12       1.0  0.940007719996963  0.6298377455690058  0.8057958818531148  1.0000
  H   H13       1.0  0.9422828568177125  0.3701058137374105  0.3344152715584627  1.0000
  H   H14       1.0  0.05771622338592411  0.6298958128471881  0.6655868303152418  1.0000
  H   H15       1.0  0.6857831168292066  0.3259296301199157  0.284443922009153  1.0000
  H   H16       1.0  0.31421634913131413  0.6740709953047174  0.7155573883637487  1.0000
  H   H17       1.0  0.7926404845595912  0.985995398622933  0.11587691675681806  1.0000
  H   H18       1.0  0.20735958030107327  0.0140012221618235  0.8841188509149163  1.0000
  H   H19       1.0  0.5476367565231969  0.9614870025899266  0.05497993894299209  1.0000
  H   H20       1.0  0.45236292258058347  0.0385106193547955  0.9450166202295449  1.0000
  H   H21       1.0  0.5563676166745423  0.0212295971356156  0.3796155893914133  1.0000
  H   H22       1.0  0.4436343769705575  0.9787620178493058  0.6203835962778399  1.0000
  H   H23       1.0  0.8002233506871976  0.0394797422044704  0.4264889490093893  1.0000
  H   H24       1.0  0.1997782977306315  0.9605078681405743  0.5735067425616619  1.0000
  H   H25       1.0  0.1772783614648574  0.025731813514717303  0.195404270131796  1.0000
  H   H26       1.0  0.8227278860011469  0.974270814229854  0.8045962478719345  1.0000
  H   H27       1.0  0.35654000765263316  0.7887518673957388  0.3042668035108704  1.0000
  H   H28       1.0  0.6434632348175171  0.21124875802889423  0.6957329504015703  1.0000
  H   H29       1.0  0.18878248762008812  0.7276320524685006  0.4126101039096142  1.0000
  H   H30       1.0  0.811228612566957  0.2723775833958513  0.5873928416788061  1.0000
  H   H31       1.0  0.030254039799516044  0.8282906780383572  0.4132080274438509  1.0000
  H   H32       1.0  0.9697533244075274  0.1717139520261526  0.5867944016564834  1.0000
  C   C1        1.0  0.16174005855584284  0.1732006745796255  0.034915017348588206  1.0000
  C   C2        1.0  0.8382558440383151  0.8267969473651037  0.9650838358345695  1.0000
  C   C3        1.0  0.042854922161865316  0.1918172441970114  0.0248574427718538  1.0000
  C   C4        1.0  0.9571415388028086  0.8081813789076833  0.9751416284094462  1.0000
  C   C5        1.0  0.0432482312987474  0.29564754454760594  0.9848260911589718  1.0000
  C   C6        1.0  0.9567508489048964  0.7043540820369927  0.015174535614427538  1.0000
  C   C7        1.0  0.1588725859569067  0.3689364588940052  0.9479793987473215  1.0000
  C   C8        1.0  0.8411244333782903  0.6310631653706623  0.05201989043212756  1.0000
  C   C9        1.0  0.2772085622118965  0.3488341678831119  0.9652348802866726  1.0000
  C   C10       1.0  0.7227880713664093  0.651166457541521  0.03476446284342671  1.0000
  C   C11       1.0  0.9270633113169782  0.3311146375976506  0.9812890261822177  1.0000
  C   C12       1.0  0.07293877388251256  0.6688889913068863  0.018712364682471613  1.0000
  C   C13       1.0  0.7224148897530115  0.300204824724986  0.04886318991102456  1.0000
  C   C14       1.0  0.27758607870543983  0.6997968018596126  0.9511377649573731  1.0000
  C   C15       1.0  0.8652781982618833  0.32301024765128267  0.07001377408331418  1.0000
  C   C16       1.0  0.13472070932812136  0.6769893766133848  0.9299873182914382  1.0000
  C   C17       1.0  0.9467706561361952  0.34771887567801946  0.17414595602087962  1.0000
  C   C18       1.0  0.05323031232225619  0.6522827509065864  0.825856473947823  1.0000
  C   C19       1.0  0.8819587332053163  0.3488421771628652  0.25225570927388935  1.0000
  C   C20       1.0  0.11804223525314235  0.6511594494217405  0.7477474582449659  1.0000
  C   C21       1.0  0.7391056066752881  0.3247092161181087  0.22520022407383067  1.0000
  C   C22       1.0  0.26089085428938574  0.675289406986586  0.7748010597579338  1.0000
  C   C23       1.0  0.7364319081842228  0.993032552042699  0.1717537558798625  1.0000
  C   C24       1.0  0.2635694865607334  0.006963067582091801  0.8282421218887208  1.0000
  C   C25       1.0  0.5991563896580275  0.9791744957563964  0.138232469971193  1.0000
  C   C26       1.0  0.40084779693953015  0.0208261296682366  0.8617652353382894  1.0000
  C   C27       1.0  0.5277602866380705  0.9843354753948788  0.21187516757163394  1.0000
  C   C28       1.0  0.4722363874698559  0.015660144229912  0.7881213650597659  1.0000
  C   C29       1.0  0.602680743596963  0.009674208777241202  0.3179714974393947  1.0000
  C   C30       1.0  0.3973176461521463  0.9903194085276112  0.6820250913381969  1.0000
  C   C31       1.0  0.7399096734177847  0.0221266364675401  0.3452691364375085  1.0000
  C   C32       1.0  0.260087812733538  0.9778619750374704  0.6547274279945015  1.0000
  C   C33       1.0  0.3767024534465834  0.9617713320210299  0.1754654261359505  1.0000
  C   C34       1.0  0.6232996317529073  0.0382322968835069  0.8245344896284338  1.0000
  C   C35       1.0  0.18413291282367086  0.9614249306718747  0.24387598394962853  1.0000
  C   C36       1.0  0.8158727762718101  0.038576695912730906  0.7561250536061052  1.0000
  C   C37       1.0  0.2830340859458432  0.9171306101780772  0.2436440825619783  1.0000
  C   C38       1.0  0.7169672682694924  0.0828700152465558  0.7563560808056166  1.0000
  C   C39       1.0  0.2862242740293014  0.8312621208253647  0.30521412994027486  1.0000
  C   C40       1.0  0.7137784100703257  0.1687375034393028  0.6947839308737116  1.0000
  C   C41       1.0  0.19213237545754686  0.7961594500039126  0.36522361241243584  1.0000
  C   C42       1.0  0.8078725421241659  0.20384417890062423  0.634776795494446  1.0000
  C   C43       1.0  0.1023346789246987  0.8506906311773436  0.36526287834268356  1.0000
  C   C44       1.0  0.8976717411549374  0.1493139988871661  0.6347386491599991  1.0000
  N   N1        1.0  0.28275345879185215  0.2560556724266477  0.012748416414865496  1.0000
  N   N2        1.0  0.7172426164159306  0.7439439518380127  0.9872492336167795  1.0000
  N   N3        1.0  0.6595497672544326  0.299997584611468  0.12441559493294821  1.0000
  N   N4        1.0  0.3404487545786879  0.700003040813158  0.8755855513924544  1.0000
  N   N5        1.0  0.8063250399213189  0.012568562246663402  0.2735648735642187  1.0000
  N   N6        1.0  0.19367485232571371  0.9874260562181547  0.7264313597088686  1.0000
  N   N7        1.0  0.09860962247185528  0.9336347322615738  0.305883259319046  1.0000
  N   N8        1.0  0.9013986858625956  0.0663698978029288  0.6941178587284753  1.0000
  O   O1        1.0  0.885864075581452  0.37001170470035316  0.9077927855213516  1.0000
  O   O2        1.0  0.11413406049477715  0.6299899218842455  0.0922098898550061  1.0000
  O   O3        1.0  0.3296905371154325  0.9789872788422544  0.09028451227448642  1.0000
  O   O4        1.0  0.6703106444862712  0.0210113442624404  0.9097094787430821  1.0000
  O   O5        1.0  0.4001590596182965  0.2474316804565362  0.2354509909222742  1.0000
  O   O6        1.0  0.5998405789558633  0.7525709472880281  0.7645513289495796  1.0000
  O   O7        1.0  0.25741266766323895  0.42703176955588873  0.424884277566477  1.0000
  O   O8        1.0  0.7425890317793674  0.5729728605086137  0.5751171672488624  1.0000
  O   O9        1.0  0.1311287660857374  0.18936740575367852  0.257897927458373  1.0000
  O   O10       1.0  0.8688737048706445  0.8106352219908858  0.7421019343553681  1.0000
  O   O11       1.0  0.534301887063684  0.4928610409757397  0.40707921415354775  1.0000
  O   O12       1.0  0.46569208674603874  0.5071415867688245  0.592919171232701  1.0000
  O   O13       1.0  0.3696952843385333  0.2707527007666997  0.4388098225097394  1.0000
  O   O14       1.0  0.6302994609849577  0.7292479246579333  0.5611884549752091  1.0000
  O   O15       1.0  0.31400093948231966  0.4365337788185215  0.23000149058499628  1.0000
  O   O16       1.0  0.68599629299613  0.563462841966235  0.770002635546085  1.0000
  O   O17       1.0  0.42291376037756834  0.6592588335682663  0.3706698574585587  1.0000
  O   O18       1.0  0.5770868628536192  0.3407387883764628  0.6293349788131621  1.0000
  O   O19       1.0  0.34625362174173097  0.6867336665884309  0.5508352312309341  1.0000
  O   O20       1.0  0.6537460168324287  0.3132689611561403  0.44916856374123176  1.0000
  O   O21       1.0  0.08586886344926371  0.1731986722596872  0.46283465685917957  1.0000
  O   O22       1.0  0.9141294857702249  0.8267999508450075  0.5371640048669661  1.0000
  O   O23       1.0  0.156207013866215  0.40568203322403923  0.5997829393218196  1.0000
  O   O24       1.0  0.843789447098459  0.5943165898806555  0.4002176069597923  1.0000
  O   O25       1.0  0.6801272887442521  0.7182641986416699  0.3524264655066389  1.0000
  O   O26       1.0  0.3198720046026367  0.28173442446302494  0.647573835367311  1.0000
  O   O27       1.0  0.5600316549544503  0.50209273704683  0.1780470549471502  1.0000
  O   O28       1.0  0.439961547341497  0.49791189301767264  0.8219529134406969  1.0000
  O   O29       1.0  0.46310491961843786  0.6801510397944384  0.1633218993904251  1.0000
  O   O30       1.0  0.5368896125618008  0.3198525891100985  0.8366781790942781  1.0000
