data_image0
_chemical_formula_structural       Cd2H26C16S4N6O4
_chemical_formula_sum              "Cd2 H26 C16 S4 N6 O4"
_cell_length_a       7.55739090040773
_cell_length_b       8.70001016277846
_cell_length_c       9.932657125727788
_cell_angle_alpha    81.92345286696586
_cell_angle_beta     74.24477107793233
_cell_angle_gamma    89.51167141740956

_space_group_name_H-M_alt    "P 1"
_space_group_IT_number       1

loop_
  _space_group_symop_operation_xyz
  'x, y, z'

loop_
  _atom_site_type_symbol
  _atom_site_label
  _atom_site_symmetry_multiplicity
  _atom_site_fract_x
  _atom_site_fract_y
  _atom_site_fract_z
  _atom_site_occupancy
  Cd  Cd1       1.0  0.007613019152238101  0.20674816873855653  0.3991799740823083  1.0000
  Cd  Cd2       1.0  0.9923724750005791  0.7932458711190263  0.6008255938466078  1.0000
  H   H1        1.0  0.5712754127362841  0.9893307256588386  0.36633495160489105  1.0000
  H   H2        1.0  0.42871297237515194  0.010665707779040199  0.6336637177148958  1.0000
  H   H3        1.0  0.4381418642891859  0.8166605806359754  0.4381997484195638  1.0000
  H   H4        1.0  0.561857416453769  0.18333485860491544  0.5618019298538357  1.0000
  H   H5        1.0  0.560990115136953  0.9451853947607841  0.1196083949419986  1.0000
  H   H6        1.0  0.4390133801180199  0.0548112921285053  0.880388275863872  1.0000
  H   H7        1.0  0.44415590444911873  0.7637886935953091  0.1950671604085059  1.0000
  H   H8        1.0  0.5558559278788523  0.23621046838387366  0.8049245503718367  1.0000
  H   H9        1.0  0.904140949282727  0.659488732045574  0.031004005776623017  1.0000
  H   H10       1.0  0.0958612340035288  0.34051141924938105  0.9689914993329226  1.0000
  H   H11       1.0  0.7641965764534648  0.8047447009630487  0.9659619777012125  1.0000
  H   H12       1.0  0.23580406122053432  0.19525075764489228  0.034040437963561515  1.0000
  H   H13       1.0  0.6639197481901746  0.6191657912519586  0.0554020355676813  1.0000
  H   H14       1.0  0.33608646092688577  0.38083093437143833  0.944596110020946  1.0000
  H   H15       1.0  0.8703774105465741  0.9840737852002944  0.10483926417911966  1.0000
  H   H16       1.0  0.1296301956847046  0.015921810656720898  0.8951567286234763  1.0000
  H   H17       1.0  0.005700243217241099  0.8281467153368778  0.1592239113587938  1.0000
  H   H18       1.0  0.9943003460916701  0.171846416714537  0.8407798008245138  1.0000
  H   H19       1.0  0.8474796806821844  0.9226105087776231  0.2892403782758777  1.0000
  H   H20       1.0  0.15252249239577512  0.0773931141659219  0.7107577314744377  1.0000
  H   H21       1.0  0.6020005140078055  0.5588146802042431  0.30943464946038557  1.0000
  H   H22       1.0  0.3980001168606649  0.44118309283609136  0.6905695026315756  1.0000
  H   H23       1.0  0.6981024997039283  0.6827692089356887  0.4046963153762277  1.0000
  H   H24       1.0  0.3019022169451162  0.31722978346339653  0.5953099061215426  1.0000
  H   H25       1.0  0.8457831218764087  0.5778068548928915  0.27872789499468087  1.0000
  H   H26       1.0  0.15422577930976897  0.42219106263943457  0.7212736045721897  1.0000
  C   C1        1.0  0.8164795889569875  0.43556276114765063  0.6382832279939095  1.0000
  C   C2        1.0  0.1835199349878067  0.5644501009982504  0.3617152977728466  1.0000
  C   C3        1.0  0.7642171792365745  0.26978259793116877  0.17043598160059759  1.0000
  C   C4        1.0  0.23579556663111131  0.7302234337605282  0.8295849284364964  1.0000
  C   C5        1.0  0.2971831197266611  0.0018099166142918016  0.35256812820856703  1.0000
  C   C6        1.0  0.7028146651455175  0.9981889466184767  0.6474424941875655  1.0000
  C   C7        1.0  0.4700790671088698  0.9101472679555299  0.3478579596602103  1.0000
  C   C8        1.0  0.5299093111970379  0.08985147991474207  0.6521424460867564  1.0000
  C   C9        1.0  0.5413577365111311  0.8497481143725805  0.2076003683562035  1.0000
  C   C10       1.0  0.4586388351488894  0.15025191904036464  0.7924022970068947  1.0000
  C   C11       1.0  0.7673411220442931  0.7090415852027119  0.04959355455923032  1.0000
  C   C12       1.0  0.23266651756463833  0.2909551759532575  0.9504012844931466  1.0000
  C   C13       1.0  0.8733724281353618  0.8849951497739851  0.18539948168746187  1.0000
  C   C14       1.0  0.12662829468413858  0.11500264347324668  0.8145996154949628  1.0000
  C   C15       1.0  0.7161501674878041  0.6382128563688667  0.3043140230583532  1.0000
  C   C16       1.0  0.28385329916866914  0.36178729812763083  0.6956862633701919  1.0000
  S   S1        1.0  0.7132650319229017  0.5804624405113188  0.711456812476392  1.0000
  S   S2        1.0  0.2867356738827808  0.41954113881689636  0.2885466257739822  1.0000
  S   S3        1.0  0.6980201506987741  0.28215847660363375  0.028627679331975676  1.0000
  S   S4        1.0  0.30196413299465524  0.7178483136788427  0.9713765917359894  1.0000
  N   N1        1.0  0.887168841247956  0.3259399608054209  0.590258785776733  1.0000
  N   N2        1.0  0.11283192993663961  0.674060158998344  0.40973901488715114  1.0000
  N   N3        1.0  0.8112407154100653  0.26162457873827794  0.27630964864636104  1.0000
  N   N4        1.0  0.1887619467479453  0.7383942052158189  0.7236704294053525  1.0000
  N   N5        1.0  0.724333831274187  0.7707203746548781  0.18860759443211347  1.0000
  N   N6        1.0  0.2756655346142765  0.22927739922530313  0.8113907653589365  1.0000
  O   O1        1.0  0.25202965351921597  0.052428306983053084  0.2422339386522836  1.0000
  O   O2        1.0  0.7479589740676643  0.9475670217765567  0.757750719689142  1.0000
  O   O3        1.0  0.20214535137421316  0.02866090181409929  0.4769467195843546  1.0000
  O   O4        1.0  0.7978500772317076  0.9713414751607271  0.5230448130316746  1.0000
