data_image0
_chemical_formula_structural       Tl4H64C44S4N4O8
_chemical_formula_sum              "Tl4 H64 C44 S4 N4 O8"
_cell_length_a       8.957031024001429
_cell_length_b       11.585689469001638
_cell_length_c       12.996822301003554
_cell_angle_alpha    90.0000580966737
_cell_angle_beta     90.00006210025829
_cell_angle_gamma    90.00001766226438

_space_group_name_H-M_alt    "P 1"
_space_group_IT_number       1

loop_
  _space_group_symop_operation_xyz
  'x, y, z'

loop_
  _atom_site_type_symbol
  _atom_site_label
  _atom_site_symmetry_multiplicity
  _atom_site_fract_x
  _atom_site_fract_y
  _atom_site_fract_z
  _atom_site_occupancy
  Tl  Tl1       1.0  0.466485783613912  0.7265857238438612  0.9027557878625672  1.0000
  Tl  Tl2       1.0  0.03351482378877079  0.27341253167347196  0.4027562780127312  1.0000
  Tl  Tl3       1.0  0.9664856621256774  0.7734137878090481  0.09724371357989271  1.0000
  Tl  Tl4       1.0  0.5335154681002409  0.2265851043617957  0.5972439841786965  1.0000
  H   H1        1.0  0.6345475043409863  0.022152536880874197  0.23386741374098116  1.0000
  H   H2        1.0  0.8654504908987449  0.977849099430735  0.7338663066032751  1.0000
  H   H3        1.0  0.1345486277987078  0.4778477127124249  0.766134462942617  1.0000
  H   H4        1.0  0.36545176526854567  0.5221512512001851  0.2661338886038607  1.0000
  H   H5        1.0  0.6563851417599338  0.9171022021607699  0.06347771669483393  1.0000
  H   H6        1.0  0.8436148190513678  0.0828975148998268  0.5634773196428713  1.0000
  H   H7        1.0  0.1563852591126533  0.5828972353515454  0.9365230913824973  1.0000
  H   H8        1.0  0.343614284822074  0.4171010584095498  0.4365216359132448  1.0000
  H   H9        1.0  0.4296205051192389  0.9604843064100235  0.35343545137774873  1.0000
  H   H10       1.0  0.0703800249085091  0.0395182089151618  0.8534348103485032  1.0000
  H   H11       1.0  0.9296222688955779  0.5395169226966061  0.6465640224615328  1.0000
  H   H12       1.0  0.5703789387063054  0.4604828884690806  0.14656547944845502  1.0000
  H   H13       1.0  0.48128423869459175  0.514217748120906  0.9880503924648993  1.0000
  H   H14       1.0  0.0187165025205971  0.4857814671353466  0.48805106431372297  1.0000
  H   H15       1.0  0.9812851842424806  0.9857817670706976  0.011949889477861603  1.0000
  H   H16       1.0  0.5187158121718767  0.0142178916292153  0.5119491867970327  1.0000
  H   H17       1.0  0.6639563481553382  0.5550793605819494  0.9423523859584011  1.0000
  H   H18       1.0  0.8360453234850879  0.4449199224603717  0.44235248891083506  1.0000
  H   H19       1.0  0.16395634703678746  0.9449200787400969  0.05764765836934772  1.0000
  H   H20       1.0  0.33604260251036067  0.055079512173179516  0.5576472303956734  1.0000
  H   H21       1.0  0.5256269490725174  0.5038738816518276  0.8529743096664293  1.0000
  H   H22       1.0  0.9743745823494193  0.4961244370267933  0.3529745626815101  1.0000
  H   H23       1.0  0.0256271085246738  0.9961255245977084  0.14702640049937096  1.0000
  H   H24       1.0  0.4743742141247367  0.0038741675466269004  0.6470260296250744  1.0000
  H   H25       1.0  0.3384466288904592  0.8756030907882036  0.7680567280892847  1.0000
  H   H26       1.0  0.16155376719208903  0.1243958753012748  0.2680556400054712  1.0000
  H   H27       1.0  0.8384466594951477  0.6243972533866824  0.23194421631577467  1.0000
  H   H28       1.0  0.6615546820514239  0.3756035176133565  0.7319431792245299  1.0000
  H   H29       1.0  0.3804171165083048  0.9503030758387041  0.8857224627947605  1.0000
  H   H30       1.0  0.11958123128881229  0.04969602351960839  0.38572204489195633  1.0000
  H   H31       1.0  0.8804169328265132  0.5496972783708216  0.11427851303766805  1.0000
  H   H32       1.0  0.619581991240601  0.4503033593602908  0.6142775123278599  1.0000
  H   H33       1.0  0.2185476070863714  0.8579304745504216  0.8781351210369623  1.0000
  H   H34       1.0  0.2814529616902703  0.14206775308103664  0.3781349081944186  1.0000
  H   H35       1.0  0.7185463555803439  0.6420681146907086  0.12186650300547093  1.0000
  H   H36       1.0  0.7814525803908481  0.35793166850082503  0.621865539653129  1.0000
  H   H37       1.0  0.0835594389845511  0.6988676130228839  0.46162087857111805  1.0000
  H   H38       1.0  0.41644014432555576  0.3011324354323789  0.9616207341556375  1.0000
  H   H39       1.0  0.5835611370170426  0.8011326702107411  0.5383783361377326  1.0000
  H   H40       1.0  0.9164399008609436  0.19886874469095525  0.03837981477094841  1.0000
  H   H41       1.0  0.3666533494608757  0.6916441569285965  0.5970748606408948  1.0000
  H   H42       1.0  0.1333467783819913  0.3083546155065946  0.09707468784521472  1.0000
  H   H43       1.0  0.8666526049778086  0.8083561939887931  0.4029237966284925  1.0000
  H   H44       1.0  0.6333467719249198  0.19164390753104496  0.9029256491003894  1.0000
  H   H45       1.0  0.30026854323722313  0.5780392977086919  0.5164243009188568  1.0000
  H   H46       1.0  0.19972922519686162  0.42196110964871286  0.016424280957856804  1.0000
  H   H47       1.0  0.8002690868744011  0.9219601742032284  0.48357430664177786  1.0000
  H   H48       1.0  0.6997304165547078  0.07804001866170301  0.9835761056964432  1.0000
  H   H49       1.0  0.19588360200551594  0.6210933233113849  0.6254924802944829  1.0000
  H   H50       1.0  0.3041176868612823  0.3789063444437559  0.12549249941501026  1.0000
  H   H51       1.0  0.695882840981362  0.8789069867773592  0.37450681852160994  1.0000
  H   H52       1.0  0.804116491339755  0.1210939456906743  0.8745079654039358  1.0000
  H   H53       1.0  0.22982679803202194  0.8862083047910687  0.5953129285675233  1.0000
  H   H54       1.0  0.2701744434875621  0.11379132878199272  0.0953119121916899  1.0000
  H   H55       1.0  0.7298270954253069  0.6137911502798802  0.40468716508403463  1.0000
  H   H56       1.0  0.7701722842434507  0.3862089532368812  0.9046885272102474  1.0000
  H   H57       1.0  0.0537807459413102  0.8196175258197868  0.6192671493247701  1.0000
  H   H58       1.0  0.4462205331579413  0.180382998017393  0.11926555580198793  1.0000
  H   H59       1.0  0.5537799157798773  0.6803818871604506  0.38073281250333935  1.0000
  H   H60       1.0  0.9462194263087794  0.31961818922555096  0.8807342460049413  1.0000
  H   H61       1.0  0.07711541833741362  0.9080127234854276  0.5092818520032694  1.0000
  H   H62       1.0  0.4228845717732952  0.09198681264838632  0.0092809301837775  1.0000
  H   H63       1.0  0.5771158420325335  0.5919866950744463  0.4907188967171195  1.0000
  H   H64       1.0  0.9228836726045131  0.4080143690156533  0.9907196235681399  1.0000
  C   C1        1.0  0.5564436670567616  0.9541730073221542  0.21214172760593195  1.0000
  C   C2        1.0  0.9435554105409878  0.04582774124961731  0.7121413717387172  1.0000
  C   C3        1.0  0.056445769330068195  0.5458264062950989  0.7878582362172681  1.0000
  C   C4        1.0  0.4435546578185594  0.4541725822223767  0.28785842807231193  1.0000
  C   C5        1.0  0.3611779886494589  0.7782084543371538  0.15148136233210616  1.0000
  C   C6        1.0  0.1388211081048425  0.2217903797179304  0.6514793991754004  1.0000
  C   C7        1.0  0.861181258144569  0.7217918952729293  0.8485195990953757  1.0000
  C   C8        1.0  0.6388202662888744  0.2782090077613759  0.3485194030317587  1.0000
  C   C9        1.0  0.5680489903387667  0.8967538438506608  0.11861576763719482  1.0000
  C   C10       1.0  0.9319488240905257  0.10324593565843539  0.6186139163641686  1.0000
  C   C11       1.0  0.0680523786013723  0.6032464356756648  0.8813849742957702  1.0000
  C   C12       1.0  0.4319470788323585  0.39675352190378277  0.3813843359174101  1.0000
  C   C13       1.0  0.44230321211755813  0.9198565581517782  0.27833861960264983  1.0000
  C   C14       1.0  0.057696083654207087  0.08014414585029069  0.7783372365367428  1.0000
  C   C15       1.0  0.9423062262964024  0.5801438108535137  0.7216608637334972  1.0000
  C   C16       1.0  0.557695099118547  0.41985608536672464  0.22166150492445522  1.0000
  C   C17       1.0  0.34353048728834784  0.8327387106169012  0.24908293034797427  1.0000
  C   C18       1.0  0.1564698790277177  0.16726109711648013  0.74908170032505  1.0000
  C   C19       1.0  0.8435335819897388  0.6672633610405471  0.7509164790281136  1.0000
  C   C20       1.0  0.6564677893230453  0.33273829458272536  0.25091788451585734  1.0000
  C   C21       1.0  0.22383685834084588  0.7976005614165019  0.3223376989553445  1.0000
  C   C22       1.0  0.2761636228985225  0.20239932928517854  0.8223358210370793  1.0000
  C   C23       1.0  0.723839852083792  0.7023997553559911  0.6776616207935079  1.0000
  C   C24       1.0  0.7761625207468867  0.29760095416533255  0.1776638534310919  1.0000
  C   C25       1.0  0.5448476692983136  0.5516587370259458  0.9244671987659034  1.0000
  C   C26       1.0  0.955153974283917  0.44833966262624625  0.42446816343026234  1.0000
  C   C27       1.0  0.0448476975977457  0.9483398106848142  0.07553275637306461  1.0000
  C   C28       1.0  0.4551535128904264  0.051658074217954195  0.5755324144835329  1.0000
  C   C29       1.0  0.3333199952681341  0.8718027597048347  0.8520818788026008  1.0000
  C   C30       1.0  0.16668053263549612  0.1281954384185582  0.3520815674259269  1.0000
  C   C31       1.0  0.8333187791209298  0.6281958569766246  0.14791906176240133  1.0000
  C   C32       1.0  0.6666813141638811  0.3718030925888981  0.6479187944802334  1.0000
  C   C33       1.0  0.1805626011799006  0.739162183301005  0.4988377226975303  1.0000
  C   C34       1.0  0.319437040515659  0.2608353179043661  0.9988366996484503  1.0000
  C   C35       1.0  0.6805642248104249  0.7608372599911634  0.5011615646467151  1.0000
  C   C36       1.0  0.8194367546808082  0.2391632496248448  0.001163007222317  1.0000
  C   C37       1.0  0.26664472964892383  0.65269089784492  0.5627756522572513  1.0000
  C   C38       1.0  0.23335534438418654  0.3473086988762547  0.06277482028959722  1.0000
  C   C39       1.0  0.7666451708986628  0.8473094291617118  0.43722293012627494  1.0000
  C   C40       1.0  0.7333542598133889  0.1526907112055014  0.9372248221234118  1.0000
  C   C41       1.0  0.1329911025559056  0.844932351931277  0.558999381782087  1.0000
  C   C42       1.0  0.3670100819934419  0.1550663773787448  0.05899770596606401  1.0000
  C   C43       1.0  0.6329903568831624  0.655067079987681  0.4410014087774955  1.0000
  C   C44       1.0  0.8670090797564357  0.34493392779255316  0.9410028059466813  1.0000
  S   S1        1.0  0.2512352524572492  0.6646286425429652  0.10924325271769673  1.0000
  S   S2        1.0  0.24876266159080979  0.3353718699397276  0.6092399361518164  1.0000
  S   S3        1.0  0.7512364004767703  0.8353708176474725  0.8907583958024933  1.0000
  S   S4        1.0  0.7487640737805066  0.164630133226531  0.39075817896259224  1.0000
  N   N1        1.0  0.47489084957668126  0.8124057932010657  0.0891815765697928  1.0000
  N   N2        1.0  0.0251081494401504  0.18759297029295396  0.589179497222027  1.0000
  N   N3        1.0  0.9748930867760209  0.6875945835963294  0.9108194700053219  1.0000
  N   N4        1.0  0.5251074189533469  0.3124055268651276  0.41081921983668934  1.0000
  O   O1        1.0  0.282730325886817  0.7753421272535803  0.415639748270877  1.0000
  O   O2        1.0  0.2172691852850193  0.2246578691218204  0.9156370770394419  1.0000
  O   O3        1.0  0.7827342985441917  0.7246590667339986  0.58436038499692  1.0000
  O   O4        1.0  0.717266811471454  0.27534240024711926  0.08436178390934403  1.0000
  O   O5        1.0  0.0900257606428951  0.7908042186072637  0.3022211900763808  1.0000
  O   O6        1.0  0.4099735725967051  0.20919651244452098  0.8022201879438953  1.0000
  O   O7        1.0  0.5900276722054656  0.7091960661728509  0.6977787988933601  1.0000
  O   O8        1.0  0.9099736157436242  0.29080466613275757  0.19778035614063336  1.0000
