data_image0
_chemical_formula_structural       Gd4P4H60C84N4O44
_chemical_formula_sum              "Gd4 P4 H60 C84 N4 O44"
_cell_length_a       11.632403155205267
_cell_length_b       14.869056147963652
_cell_length_c       17.589178687015835
_cell_angle_alpha    89.99990603967768
_cell_angle_beta     89.99988079467832
_cell_angle_gamma    91.57398927146751

_space_group_name_H-M_alt    "P 1"
_space_group_IT_number       1

loop_
  _space_group_symop_operation_xyz
  'x, y, z'

loop_
  _atom_site_type_symbol
  _atom_site_label
  _atom_site_symmetry_multiplicity
  _atom_site_fract_x
  _atom_site_fract_y
  _atom_site_fract_z
  _atom_site_occupancy
  Gd  Gd1       1.0  0.07574529721554768  0.5942209065677772  0.5739222972799921  1.0000
  Gd  Gd2       1.0  0.4242523660218822  0.9057774304748988  0.0739229410522881  1.0000
  Gd  Gd3       1.0  0.9242561937258457  0.4057788531494424  0.4260769640831795  1.0000
  Gd  Gd4       1.0  0.5757447830725938  0.0942209758378425  0.9260768888461967  1.0000
  P   P1        1.0  0.33517128059843065  0.750727467262088  0.5799990420239283  1.0000
  P   P2        1.0  0.164825525020504  0.749271528795113  0.0799991230484949  1.0000
  P   P3        1.0  0.6648294154892653  0.24927430925868072  0.4200007878697747  1.0000
  P   P4        1.0  0.8351724621707819  0.25072620629228487  0.9200012753812531  1.0000
  H   H1        1.0  0.1093613516090457  0.13515648693626758  0.3285308046717574  1.0000
  H   H2        1.0  0.3906383708836572  0.36484374194629504  0.8285304890737208  1.0000
  H   H3        1.0  0.8906375601708022  0.86484326808565  0.6714690252245745  1.0000
  H   H4        1.0  0.6093622387141338  0.635155343415761  0.1714693408219077  1.0000
  H   H5        1.0  0.1832972212292603  0.4920313307217015  0.7232373954562803  1.0000
  H   H6        1.0  0.3167027962729563  0.0079677641598508  0.22323873874861275  1.0000
  H   H7        1.0  0.8167051510548189  0.5079691033501064  0.27676186590581847  1.0000
  H   H8        1.0  0.6832961155032393  0.9920319908597788  0.7767633652732329  1.0000
  H   H9        1.0  0.24682141933980964  0.49667397681188424  0.6444622092520192  1.0000
  H   H10       1.0  0.2531797109501994  0.0033252779284822995  0.1444630779617242  1.0000
  H   H11       1.0  0.7531817694195198  0.5033251132454808  0.3555370521104493  1.0000
  H   H12       1.0  0.7468191143370007  0.9966717859330174  0.8555384575306633  1.0000
  H   H13       1.0  0.4003248198313685  0.6118963140239373  0.4786833905714545  1.0000
  H   H14       1.0  0.0996741655087661  0.8881025599527135  0.9786840121186912  1.0000
  H   H15       1.0  0.5996767359774539  0.3881054640623134  0.521315870790275  1.0000
  H   H16       1.0  0.900323864925653  0.11189652071290367  0.0213175233728506  1.0000
  H   H17       1.0  0.58846031049562  0.5428345112186151  0.4495938323402058  1.0000
  H   H18       1.0  0.9115377351862577  0.9571635398439113  0.9495950655892287  1.0000
  H   H19       1.0  0.4115403423480402  0.4571659197233728  0.5504054290230798  1.0000
  H   H20       1.0  0.08845857580499938  0.04283553769016629  0.05040817549762979  1.0000
  H   H21       1.0  0.7594611270059062  0.727663544007875  0.6026496243802697  1.0000
  H   H22       1.0  0.7405380548619079  0.7723358770043445  0.1026518432593662  1.0000
  H   H23       1.0  0.24054029906348967  0.2723341973374573  0.3973524796412348  1.0000
  H   H24       1.0  0.2594617598721456  0.2276652251549861  0.8973548090119435  1.0000
  H   H25       1.0  0.5734403816834046  0.7968845997380779  0.6335118618816225  1.0000
  H   H26       1.0  0.9265577980739581  0.7031134121144477  0.1335139204260898  1.0000
  H   H27       1.0  0.42656192573050333  0.2031138159629862  0.36648910507605587  1.0000
  H   H28       1.0  0.0734411137004045  0.29688634290403826  0.8664893206585162  1.0000
  H   H29       1.0  0.1336040302155084  0.8584036122077735  0.5596070227796872  1.0000
  H   H30       1.0  0.36639462522124694  0.6415974463247949  0.0596069753448063  1.0000
  H   H31       1.0  0.8663983853126069  0.1415981674428153  0.4403928071128291  1.0000
  H   H32       1.0  0.6336051462788106  0.35840231026202923  0.9403928545509288  1.0000
  H   H33       1.0  0.08669816873653248  0.9787251575118036  0.4676060870291181  1.0000
  H   H34       1.0  0.4133008954344887  0.5212750843032126  0.9676067849150484  1.0000
  H   H35       1.0  0.9133025057286873  0.0212759462192835  0.532393742865061  1.0000
  H   H36       1.0  0.586699714161476  0.4787240010576994  0.032394182043333296  1.0000
  H   H37       1.0  0.41731560766077536  0.9540706799499927  0.3611461016841844  1.0000
  H   H38       1.0  0.0826846366139122  0.5459291045651469  0.8611460838167488  1.0000
  H   H39       1.0  0.5826850884269277  0.045931096570775785  0.6388537282095186  1.0000
  H   H40       1.0  0.9173168327040883  0.45406998236182267  0.13885374607828277  1.0000
  H   H41       1.0  0.4669668768150785  0.8340851247888708  0.45350407301628337  1.0000
  H   H42       1.0  0.0330313729418634  0.6659151438002481  0.9535028201940818  1.0000
  H   H43       1.0  0.5330347222377867  0.1659179988761608  0.5464957568758635  1.0000
  H   H44       1.0  0.9669683985600199  0.33408461278772716  0.04649587263889289  1.0000
  H   H45       1.0  0.2878404990811845  0.6734323053235516  0.724477164671498  1.0000
  H   H46       1.0  0.21215253325234332  0.8265704308926232  0.2244776418930314  1.0000
  H   H47       1.0  0.7121559848999366  0.32657215453422583  0.275519822566352  1.0000
  H   H48       1.0  0.7878421664172705  0.1734320074640223  0.775521619472961  1.0000
  H   H49       1.0  0.3289812001238984  0.7278565387504443  0.8574042830872272  1.0000
  H   H50       1.0  0.17101568215702662  0.772145265392382  0.3574048924149977  1.0000
  H   H51       1.0  0.6710152189879608  0.2721459027371579  0.14259384121481838  1.0000
  H   H52       1.0  0.8289832296237307  0.2278544896301042  0.6425943689499576  1.0000
  H   H53       1.0  0.4464376562293638  0.9839651392417039  0.7693339659691815  1.0000
  H   H54       1.0  0.0535654837757846  0.5160355072475653  0.26933452353549103  1.0000
  H   H55       1.0  0.5535655973937494  0.016035969182404103  0.23066756951735806  1.0000
  H   H56       1.0  0.9464369101325971  0.483965599615061  0.7306636007633642  1.0000
  H   H57       1.0  0.4057979539326766  0.9315412310073371  0.6371061394173196  1.0000
  H   H58       1.0  0.0942038914158161  0.5684596780545731  0.1371071368700711  1.0000
  H   H59       1.0  0.5942105228818734  0.06846190517698152  0.36289369047008074  1.0000
  H   H60       1.0  0.9057959017112863  0.4315407513247819  0.8628898503682975  1.0000
  C   C1        1.0  0.47511193050442563  0.709323500049351  0.5570212101399008  1.0000
  C   C2        1.0  0.024889204285301503  0.7906742044241781  0.0570225636320245  1.0000
  C   C3        1.0  0.5248904634021301  0.2906776068121388  0.442978051221715  1.0000
  C   C4        1.0  0.9751113404414085  0.20932286256656596  0.9429795403905529  1.0000
  C   C5        1.0  0.47951637535727093  0.6381532404730096  0.5046839633444975  1.0000
  C   C6        1.0  0.020480650588453393  0.8618452341339092  0.004685224267227299  1.0000
  C   C7        1.0  0.5204851588299847  0.3618478648241351  0.4953147294863314  1.0000
  C   C8        1.0  0.9795164552574107  0.13815182659719483  0.9953168797577304  1.0000
  C   C9        1.0  0.5843625627754037  0.5994463526689344  0.4887002267800398  1.0000
  C   C10       1.0  0.9156344975551817  0.9005516182463751  0.9887021013779247  1.0000
  C   C11       1.0  0.4156380900682565  0.40055407827305345  0.5112990345832458  1.0000
  C   C12       1.0  0.08436351125493502  0.09944678962842352  0.011300571176853699  1.0000
  C   C13       1.0  0.6852227749497999  0.6311280781168448  0.524480089103818  1.0000
  C   C14       1.0  0.8147740572555262  0.8688708224870397  0.024482640445818  1.0000
  C   C15       1.0  0.3147786943682007  0.3688710088101246  0.47551974079121345  1.0000
  C   C16       1.0  0.18522309183163801  0.13112758382113296  0.9755217377036871  1.0000
  C   C17       1.0  0.6805618395816496  0.7034388568243344  0.5753510928612117  1.0000
  C   C18       1.0  0.8194373867375973  0.7965592734626626  0.0753537380011551  1.0000
  C   C19       1.0  0.31943960811296535  0.296559557312392  0.4246493055656799  1.0000
  C   C20       1.0  0.18056234151293887  0.20343913754195597  0.9246489345524367  1.0000
  C   C21       1.0  0.5760249537464546  0.7423541866886082  0.5921296359348602  1.0000
  C   C22       1.0  0.9239733373306721  0.7576432355296775  0.0921310539316593  1.0000
  C   C23       1.0  0.4239765155706294  0.25764490023779263  0.4078707624915552  1.0000
  C   C24       1.0  0.0760246498569614  0.24235449955543942  0.9078716186235951  1.0000
  C   C25       1.0  0.7973737810442572  0.5858206759022196  0.5111559418687364  1.0000
  C   C26       1.0  0.7026248350297308  0.9141789273961933  0.011157447858302302  1.0000
  C   C27       1.0  0.2026276666512601  0.41417773823507525  0.4888438880267714  1.0000
  C   C28       1.0  0.2973740334996791  0.08581948204293613  0.9888457932272631  1.0000
  C   C29       1.0  0.30425029534343645  0.839411726440261  0.5131368691356073  1.0000
  C   C30       1.0  0.19574850938109017  0.6605894254718834  0.0131358934091281  1.0000
  C   C31       1.0  0.695752098561293  0.16058938042008458  0.48686352928876886  1.0000
  C   C32       1.0  0.8042530464277321  0.3394123526143673  0.9868633679526012  1.0000
  C   C33       1.0  0.19659286506978188  0.8799063888782896  0.5169273139297843  1.0000
  C   C34       1.0  0.30340506775780085  0.6200947538523918  0.0169262460122326  1.0000
  C   C35       1.0  0.8034104101776336  0.120095392336637  0.4830730844935189  1.0000
  C   C36       1.0  0.6965938872669994  0.3799063467488751  0.9830735838831401  1.0000
  C   C37       1.0  0.1698423735955714  0.9470123574969378  0.46523527588608715  1.0000
  C   C38       1.0  0.3301567198159177  0.5529885618728159  0.9652349073007968  1.0000
  C   C39       1.0  0.8301591822132579  0.0529894205893129  0.5347639854756423  1.0000
  C   C40       1.0  0.6698439330268258  0.4470118690685965  0.0347649225938653  1.0000
  C   C41       1.0  0.24972322284669704  0.9743302024171641  0.40935425276929754  1.0000
  C   C42       1.0  0.2502769098036381  0.5256708308064972  0.90935403209388  1.0000
  C   C43       1.0  0.7502792143039014  0.0256722500230993  0.5906455771227357  1.0000
  C   C44       1.0  0.7497246243817912  0.47433027448950327  0.0906457977997093  1.0000
  C   C45       1.0  0.3564696531404081  0.9331745867044033  0.40527385805780364  1.0000
  C   C46       1.0  0.14353049261904258  0.5668264547190205  0.9052731588715659  1.0000
  C   C47       1.0  0.6435319242890641  0.0668278641703779  0.5947265403661959  1.0000
  C   C48       1.0  0.8564692572585387  0.4331726290781289  0.0947266710246524  1.0000
  C   C49       1.0  0.383880577490757  0.8660482922031745  0.45699489076094585  1.0000
  C   C50       1.0  0.11611766105197319  0.633951969371452  0.9569935677735089  1.0000
  C   C51       1.0  0.6161209783162391  0.1339534858819391  0.543005507663544  1.0000
  C   C52       1.0  0.8838821104499102  0.366047787216516  0.043005125059472994  1.0000
  C   C53       1.0  0.22424403969494477  0.0474431650793719  0.35429492278569796  1.0000
  C   C54       1.0  0.2757556000299601  0.45255701203189597  0.8542946438899719  1.0000
  C   C55       1.0  0.7757566347693581  0.9525579386511537  0.6457054756398648  1.0000
  C   C56       1.0  0.7242458692880404  0.5474420748950735  0.1457051860050598  1.0000
  C   C57       1.0  0.3468745860502409  0.7988725254056278  0.6732461060596577  1.0000
  C   C58       1.0  0.1531228445963606  0.7011283032106023  0.1732474069959267  1.0000
  C   C59       1.0  0.6531261100401977  0.2011292511168534  0.3267520182399082  1.0000
  C   C60       1.0  0.8468760888068729  0.29887212460156576  0.8267518543685454  1.0000
  C   C61       1.0  0.3229242035391664  0.7411788747808997  0.734878375121319  1.0000
  C   C62       1.0  0.1770721910150144  0.7588225012143113  0.23487956310088257  1.0000
  C   C63       1.0  0.6770722155736096  0.2588235667072781  0.2651191806493571  1.0000
  C   C64       1.0  0.8229250878152283  0.24117994183706057  0.7651196982633337  1.0000
  C   C65       1.0  0.3455860459273339  0.771117075662481  0.8083758012102251  1.0000
  C   C66       1.0  0.1544092311739576  0.7288834782910955  0.3083759248421245  1.0000
  C   C67       1.0  0.6544086537441061  0.22888536269530846  0.1916223230930143  1.0000
  C   C68       1.0  0.8455871014470873  0.2711162720372328  0.6916227679932304  1.0000
  C   C69       1.0  0.3929064996615494  0.8577013984142211  0.8204058325752186  1.0000
  C   C70       1.0  0.1070930590162646  0.6422998119798605  0.3204061413983652  1.0000
  C   C71       1.0  0.6070908007911768  0.1423017174268323  0.17959342878851456  1.0000
  C   C72       1.0  0.8929067124847023  0.357699944607539  0.6795931199659931  1.0000
  C   C73       1.0  0.41275382105317243  0.9160414935310328  0.7589708462801354  1.0000
  C   C74       1.0  0.0872484492769345  0.5839578266369613  0.2589724003658276  1.0000
  C   C75       1.0  0.5872468534129637  0.08395961020062971  0.24102841508266687  1.0000
  C   C76       1.0  0.9127521819451586  0.41604193151592034  0.7410262924665574  1.0000
  C   C77       1.0  0.3895857877649221  0.8867233199978628  0.6852727285337394  1.0000
  C   C78       1.0  0.11041418340900579  0.61327748914794  0.1852725044740708  1.0000
  C   C79       1.0  0.6104140486007381  0.1132784549568484  0.31472823842330644  1.0000
  C   C80       1.0  0.8895856097162707  0.38672294023027837  0.8147256198270512  1.0000
  C   C81       1.0  0.42322689083813003  0.8867493579418876  0.8993355713241158  1.0000
  C   C82       1.0  0.0767775725956596  0.6132517032364432  0.3993370992375702  1.0000
  C   C83       1.0  0.5767771792648019  0.11325040647063389  0.1006631215059031  1.0000
  C   C84       1.0  0.9232256377843271  0.3867480596094595  0.6006632991871682  1.0000
  N   N1        1.0  0.9779604028003133  0.7219559799407733  0.6819681330530755  1.0000
  N   N2        1.0  0.5220359018528384  0.778041931414151  0.18196837091804946  1.0000
  N   N3        1.0  0.022041088141989493  0.27804377977702177  0.3180305597787196  1.0000
  N   N4        1.0  0.4779595278002943  0.22195647176819477  0.8180320275129915  1.0000
  O   O1        1.0  0.2477211582206351  0.6741391413807848  0.5788444681077394  1.0000
  O   O2        1.0  0.2522757159761042  0.8258618753662859  0.07884375397368609  1.0000
  O   O3        1.0  0.7522795811111109  0.3258639807187649  0.421155930316381  1.0000
  O   O4        1.0  0.7477215196091862  0.17413922210573676  0.9211555073914893  1.0000
  O   O5        1.0  0.7937949610901214  0.5125799453640595  0.47319799762424  1.0000
  O   O6        1.0  0.706205544679122  0.9874167173831978  0.9731989032917596  1.0000
  O   O7        1.0  0.2062064866063196  0.48741846877380374  0.5268012637398982  1.0000
  O   O8        1.0  0.2937906149584464  0.012577650625431097  0.026802063672953104  1.0000
  O   O9        1.0  0.8868655266900661  0.6230063410097911  0.5393919653522589  1.0000
  O   O10       1.0  0.6131320740844899  0.8769911856144007  0.039395351765819  1.0000
  O   O11       1.0  0.1131359426279346  0.37699274591717813  0.46060786454277297  1.0000
  O   O12       1.0  0.38686238773057363  0.12300385205121955  0.9606084578564946  1.0000
  O   O13       1.0  0.1226113403278006  0.08390421182421902  0.36539952240537577  1.0000
  O   O14       1.0  0.37738736075469603  0.41609459582664243  0.8654014281546836  1.0000
  O   O15       1.0  0.87738752820983  0.9160941976200547  0.6345986018977854  1.0000
  O   O16       1.0  0.6226123891201497  0.5839044879687948  0.1346001073356717  1.0000
  O   O17       1.0  0.29249659720133536  0.07212754863659399  0.3038160946592754  1.0000
  O   O18       1.0  0.20750238821142375  0.42787407392221866  0.8038165125352634  1.0000
  O   O19       1.0  0.7075024226909008  0.927875570333704  0.6961837352346478  1.0000
  O   O20       1.0  0.7924991243515366  0.5721263585841073  0.1961833173588019  1.0000
  O   O21       1.0  0.4748395293550516  0.9627631701245603  0.9088009620107158  1.0000
  O   O22       1.0  0.0251622380210819  0.5372351761806584  0.4088020978540142  1.0000
  O   O23       1.0  0.5251593175601031  0.03723456653003859  0.0911971622929215  1.0000
  O   O24       1.0  0.9748409291185139  0.4627632410887372  0.5911954579148002  1.0000
  O   O25       1.0  0.396224708806507  0.8352085153650107  0.9542944169070678  1.0000
  O   O26       1.0  0.10377869673023099  0.6647917610238849  0.4542946991252279  1.0000
  O   O27       1.0  0.6037792531831271  0.16478788509855494  0.04570484445673631  1.0000
  O   O28       1.0  0.896226233090175  0.3352080049518377  0.5457056992983311  1.0000
  O   O29       1.0  0.027785968206877995  0.750167232919175  0.6216726041698876  1.0000
  O   O30       1.0  0.4722088759809752  0.7498283123188897  0.1216733980104294  1.0000
  O   O31       1.0  0.9722137600509624  0.2498311780900124  0.3783255201326767  1.0000
  O   O32       1.0  0.5277830715445333  0.2501687390233228  0.8783281374867045  1.0000
  O   O33       1.0  0.9888307182316536  0.6393229905353905  0.6994357408917438  1.0000
  O   O34       1.0  0.5111620698042216  0.8606742066709075  0.1994353106774156  1.0000
  O   O35       1.0  0.011170751086346797  0.36067609639158593  0.3005640890032879  1.0000
  O   O36       1.0  0.488829877724946  0.1393228446735861  0.8005639506942046  1.0000
  O   O37       1.0  0.9190543287971735  0.773215893480284  0.722080869494846  1.0000
  O   O38       1.0  0.5809444477761545  0.7267826147552157  0.22208109724934388  1.0000
  O   O39       1.0  0.0809489032071156  0.22678454215643032  0.2779183918666561  1.0000
  O   O40       1.0  0.41905618344411266  0.2732171433965221  0.7779187326457944  1.0000
  O   O41       1.0  0.19516074612111112  0.5298009917354705  0.6773381173558448  1.0000
  O   O42       1.0  0.30483744461015055  0.9701971390643466  0.1773394048900059  1.0000
  O   O43       1.0  0.8048407448211917  0.4701987679823176  0.3226605754759504  1.0000
  O   O44       1.0  0.6951596828590992  0.0298005944570008  0.822662130603085  1.0000
