data_image0
_chemical_formula_structural       Al4H36C40O20
_chemical_formula_sum              "Al4 H36 C40 O20"
_cell_length_a       6.633939683349147
_cell_length_b       11.344972168704926
_cell_length_c       17.789353122703513
_cell_angle_alpha    89.89040314594386
_cell_angle_beta     92.58332287152948
_cell_angle_gamma    90.90904852834176

_space_group_name_H-M_alt    "P 1"
_space_group_IT_number       1

loop_
  _space_group_symop_operation_xyz
  'x, y, z'

loop_
  _atom_site_type_symbol
  _atom_site_label
  _atom_site_symmetry_multiplicity
  _atom_site_fract_x
  _atom_site_fract_y
  _atom_site_fract_z
  _atom_site_occupancy
  Al  Al1       1.0  0.9865595080838719  0.001095789365564301  0.5019991938528889  1.0000
  Al  Al2       1.0  0.4863491467139553  0.997653344569933  0.4998803179642479  1.0000
  Al  Al3       1.0  0.013633024222265498  0.502270156198861  0.0001141618333165  1.0000
  Al  Al4       1.0  0.5134289404827896  0.4988460836013004  0.9980066523548955  1.0000
  H   H1        1.0  0.22289430636121926  0.8514314324742216  0.4716554924652669  1.0000
  H   H2        1.0  0.7341260153835448  0.14860511310269686  0.47379447387196894  1.0000
  H   H3        1.0  0.2770475269783219  0.648482163092595  0.028394078087188704  1.0000
  H   H4        1.0  0.7658240056960254  0.35133736218692485  0.0262497594796329  1.0000
  H   H5        1.0  0.4667035909830091  0.6251225091398354  0.789012216744787  1.0000
  H   H6        1.0  0.03313094622358651  0.8750170067678267  0.711088070076471  1.0000
  H   H7        1.0  0.9898095992496395  0.22401987892266817  0.1482199635647206  1.0000
  H   H8        1.0  0.5102173291507343  0.27596695028099555  0.3518384160204064  1.0000
  H   H9        1.0  0.5244971770229584  0.2376696910067082  0.8472666449359849  1.0000
  H   H10       1.0  0.9756333996981611  0.2624118212850774  0.6526920235868018  1.0000
  H   H11       1.0  0.4986700958104749  0.7757130653931269  0.14562017182095127  1.0000
  H   H12       1.0  0.0014104892485277988  0.7243254537095037  0.3543428338994588  1.0000
  H   H13       1.0  0.3013528618559533  0.7852825721826588  0.6394220185622571  1.0000
  H   H14       1.0  0.4297911195787947  0.6744229235565554  0.5938385464837097  1.0000
  H   H15       1.0  0.29657417293413607  0.6390749131358859  0.6761237771915347  1.0000
  H   H16       1.0  0.20344364251549513  0.860832687327189  0.8238973079971643  1.0000
  H   H17       1.0  0.07033345440723342  0.8255714463531729  0.9062059184663269  1.0000
  H   H18       1.0  0.19845673026000554  0.7146392195654839  0.8605927197004775  1.0000
  H   H19       1.0  0.8094644131191517  0.0906550894694362  0.21387012814407313  1.0000
  H   H20       1.0  0.9372224637920042  0.007675870726401996  0.2858402709259309  1.0000
  H   H21       1.0  0.7919092064401241  0.12864946682837086  0.31051182540451094  1.0000
  H   H22       1.0  0.7080218013603671  0.3714022625714505  0.18951249258908118  1.0000
  H   H23       1.0  0.5626479909665393  0.4923280149386853  0.21419310029957467  1.0000
  H   H24       1.0  0.6905369747608604  0.40940221132449733  0.2861441252973123  1.0000
  H   H25       1.0  0.7041005294876685  0.1099262260817682  0.7804689098846609  1.0000
  H   H26       1.0  0.5638165954646724  0.0115844099235147  0.7196328631103555  1.0000
  H   H27       1.0  0.6944912826685011  0.13103564254696204  0.6809498405024215  1.0000
  H   H28       1.0  0.8055492739013277  0.3689115766119074  0.8189749428196293  1.0000
  H   H29       1.0  0.9360290522266085  0.48844756795295297  0.7802878959723714  1.0000
  H   H30       1.0  0.7959838445326783  0.38998853455156285  0.719466401608166  1.0000
  H   H31       1.0  0.2922542413084487  0.8692193348410411  0.3056639000494954  1.0000
  H   H32       1.0  0.4431633043240383  0.9913989356428841  0.2823458191277908  1.0000
  H   H33       1.0  0.31776546406071304  0.9072216835081834  0.2093279198739992  1.0000
  H   H34       1.0  0.18235971360576292  0.5928038240879162  0.2906011899776573  1.0000
  H   H35       1.0  0.05689615504532241  0.5086703946992372  0.2175821204039892  1.0000
  H   H36       1.0  0.20777632583885722  0.6308437168023175  0.19426153904070986  1.0000
  C   C1        1.0  0.7182361726031984  0.8675825545330934  0.3930398457713835  1.0000
  C   C2        1.0  0.7494518066571915  0.8659137795933985  0.6053825616695647  1.0000
  C   C3        1.0  0.259696827292494  0.12652328112992  0.6083762066431717  1.0000
  C   C4        1.0  0.22310417671708657  0.1328219804520501  0.3938346825209322  1.0000
  C   C5        1.0  0.7818523266031647  0.6324433931348706  0.10694404954335819  1.0000
  C   C6        1.0  0.7505485934225291  0.634054332502714  0.8946445248692498  1.0000
  C   C7        1.0  0.24026338251580634  0.3734836952670831  0.8916450927797754  1.0000
  C   C8        1.0  0.2768565507681516  0.3671657527450379  0.1061888053884914  1.0000
  C   C9        1.0  0.7435792593257774  0.801814347075492  0.67847324603445  1.0000
  C   C10       1.0  0.7563084451975541  0.698254665751193  0.8215853929682098  1.0000
  C   C11       1.0  0.5769841715672898  0.7312924628789045  0.6991420399899725  1.0000
  C   C12       1.0  0.9228978156755262  0.7687624437138184  0.8008996894077924  1.0000
  C   C13       1.0  0.5901562878956597  0.6813856845710617  0.7709482693166336  1.0000
  C   C14       1.0  0.9096913849870631  0.8187052046264542  0.729116187189824  1.0000
  C   C15       1.0  0.2281361175856986  0.19314012010288192  0.3192264419308799  1.0000
  C   C16       1.0  0.2718453401967551  0.30685913313993035  0.18081352759683264  1.0000
  C   C17       1.0  0.0758147654901364  0.17616029141134956  0.26182613388171205  1.0000
  C   C18       1.0  0.4241656632084698  0.32384071175702894  0.2382216971396716  1.0000
  C   C19       1.0  0.10364995475396911  0.23471964631283976  0.1939314948155442  1.0000
  C   C20       1.0  0.39631645054375036  0.2653077346335521  0.3061274410892807  1.0000
  C   C21       1.0  0.2629609197578731  0.18900091245199496  0.6820714176060676  1.0000
  C   C22       1.0  0.23711182996490981  0.31106208997989876  0.8178985508942276  1.0000
  C   C23       1.0  0.42356256627867594  0.17926256717770167  0.7368239033631383  1.0000
  C   C24       1.0  0.07651398576356881  0.3207995826580685  0.7631337294873788  1.0000
  C   C25       1.0  0.40430131182611717  0.2419198855341733  0.803513765530937  1.0000
  C   C26       1.0  0.09579623038938224  0.2581564557986695  0.6964378590571556  1.0000
  C   C27       1.0  0.7252194960909012  0.8066408516564821  0.3188157392894553  1.0000
  C   C28       1.0  0.7748762823557271  0.6933975044036771  0.1811339145796182  1.0000
  C   C29       1.0  0.5780099936796931  0.8234336983681769  0.25986969813961025  1.0000
  C   C30       1.0  0.9220590936296347  0.6766054276368791  0.2400875910709246  1.0000
  C   C31       1.0  0.608876997822705  0.7651861756935572  0.1924047589477738  1.0000
  C   C32       1.0  0.8912400447859385  0.7348469685123505  0.3075490219130971  1.0000
  C   C33       1.0  0.39146062034791385  0.7060343279014135  0.6496400494083757  1.0000
  C   C34       1.0  0.10848802313829962  0.7939399864074304  0.8503921904440972  1.0000
  C   C35       1.0  0.8937421366302517  0.09686212720365008  0.2683042620559917  1.0000
  C   C36       1.0  0.6061933653031064  0.4031569946925444  0.23172854993132572  1.0000
  C   C37       1.0  0.6065478591075505  0.10447733354364167  0.7290617342637731  1.0000
  C   C38       1.0  0.8934836369025094  0.3955218449033068  0.7708747441017394  1.0000
  C   C39       1.0  0.39825207560915743  0.9018296840474846  0.2644892207813214  1.0000
  C   C40       1.0  0.1018425656767477  0.5982212545116494  0.23545253541524153  1.0000
  O   O1        1.0  0.8862476533014105  0.8828385685155665  0.4299065979046617  1.0000
  O   O2        1.0  0.5839247691367787  0.879713404965663  0.5675508605362438  1.0000
  O   O3        1.0  0.4254738433490602  0.08882034187670478  0.5853139767092159  1.0000
  O   O4        1.0  0.052255962446963615  0.1006454436225468  0.4172718433418225  1.0000
  O   O5        1.0  0.08971604947253552  0.11503949116174537  0.5722802412005379  1.0000
  O   O6        1.0  0.39271857812498473  0.11714232626279399  0.42910320917266626  1.0000
  O   O7        1.0  0.5475473010409219  0.9008205140438292  0.4144573214005618  1.0000
  O   O8        1.0  0.9200911533599339  0.9055618737171115  0.5857549720427855  1.0000
  O   O9        1.0  0.23304875163282193  0.925930735201291  0.4981565887487704  1.0000
  O   O10       1.0  0.7370708508820842  0.07294952165889869  0.49910766354679487  1.0000
  O   O11       1.0  0.9525743214516637  0.5991420748731001  0.0855432117508172  1.0000
  O   O12       1.0  0.5799243125915012  0.5943401944550502  0.9142638548809076  1.0000
  O   O13       1.0  0.4101592186796027  0.3848930695032635  0.9277791501824453  1.0000
  O   O14       1.0  0.10727748241038171  0.3827988568984677  0.0708919445937326  1.0000
  O   O15       1.0  0.07444897697611451  0.4111389297286721  0.9146732863112773  1.0000
  O   O16       1.0  0.4477081823326473  0.399388967543615  0.0827983134579782  1.0000
  O   O17       1.0  0.6138020085945043  0.6171572725421298  0.07006572774733401  1.0000
  O   O18       1.0  0.9161064274626798  0.6201993222172816  0.9324501063343931  1.0000
  O   O19       1.0  0.2669698959723235  0.5739999417749145  0.0018604764169722994  1.0000
  O   O20       1.0  0.7628672185443506  0.4269585772198852  0.0008954404546202007  1.0000
