data_image0
_chemical_formula_structural       Nd4Cu6H60C48N12O48
_chemical_formula_sum              "Nd4 Cu6 H60 C48 N12 O48"
_cell_length_a       13.415660299536428
_cell_length_b       13.415667640986491
_cell_length_c       14.72949494500898
_cell_angle_alpha    90.00008390567584
_cell_angle_beta     90.00004038820211
_cell_angle_gamma    120.00001125988913

_space_group_name_H-M_alt    "P 1"
_space_group_IT_number       1

loop_
  _space_group_symop_operation_xyz
  'x, y, z'

loop_
  _atom_site_type_symbol
  _atom_site_label
  _atom_site_symmetry_multiplicity
  _atom_site_fract_x
  _atom_site_fract_y
  _atom_site_fract_z
  _atom_site_occupancy
  Nd  Nd1       1.0  0.3333327453246114  0.6666670440969825  0.6683486553856781  1.0000
  Nd  Nd2       1.0  0.666668685516541  0.33333185668446674  0.8316487760602626  1.0000
  Nd  Nd3       1.0  0.6666668698358152  0.33333248413182315  0.33165132010523013  1.0000
  Nd  Nd4       1.0  0.33333210539703356  0.6666679865865675  0.1683511994312425  1.0000
  Cu  Cu1       1.0  0.49999980758021684  0.4999997641144063  0.4999999877454542  1.0000
  Cu  Cu2       1.0  1.6847042163009817e-07  0.4999999379720493  0.49999982667431186  1.0000
  Cu  Cu3       1.0  0.4999994514344481  0.9999990384658516  0.5000003217345821  1.0000
  Cu  Cu4       1.0  3.892518166978721e-07  0.5000000197487608  3.3398986689999996e-07  1.0000
  Cu  Cu5       1.0  0.49999958679882184  0.49999968233769476  0.9999994804299064  1.0000
  Cu  Cu6       1.0  0.4999992418595769  0.9999995505967478  1.5014038010000002e-07  1.0000
  H   H1        1.0  0.6774633293547371  0.6383878031875484  0.418351037742326  1.0000
  H   H2        1.0  0.693695391076709  0.8307358712211512  0.4731765407584945  1.0000
  H   H3        1.0  0.7128571619293638  0.7406244360771198  0.551750803395322  1.0000
  H   H4        1.0  0.605782412597968  0.6855701361650617  0.29792397065534  1.0000
  H   H5        1.0  0.5386694537290355  0.7393629444733991  0.3686154787283867  1.0000
  H   H6        1.0  0.9609215525388635  0.32253493471662154  0.4183515969830153  1.0000
  H   H7        1.0  0.13704047632618446  0.30630357798615643  0.4731766900360625  1.0000
  H   H8        1.0  0.027765500315105416  0.2871407477636795  0.5517502797802223  1.0000
  H   H9        1.0  0.07978637116074341  0.3942168751330044  0.2979242855014377  1.0000
  H   H10       1.0  0.20069266533372612  0.46133132175084784  0.3686165419520151  1.0000
  H   H11       1.0  0.36161287271836784  0.03907967830181752  0.41835257239758755  1.0000
  H   H12       1.0  0.16926347565055977  0.8629591845420066  0.4731770722509764  1.0000
  H   H13       1.0  0.2593760674255636  0.9722346234793094  0.5517514909304211  1.0000
  H   H14       1.0  0.3144293466685327  0.9202145672119927  0.29792335462581576  1.0000
  H   H15       1.0  0.2606377246767053  0.7993090845565121  0.36861542920527046  1.0000
  H   H16       1.0  0.0390786750322576  0.3616127229353125  0.081647995931057  1.0000
  H   H17       1.0  0.8629606432943008  0.16926469670639926  0.0268227635515572  1.0000
  H   H18       1.0  0.9722351857629051  0.25937573654707796  0.9482482065683513  1.0000
  H   H19       1.0  0.9202153708552885  0.31442897803312775  0.20207600268732048  1.0000
  H   H20       1.0  0.7993089062131347  0.26063643780930346  0.13138443404535138  1.0000
  H   H21       1.0  0.638388612769333  0.6774646584427514  0.08164772106710669  1.0000
  H   H22       1.0  0.8307374303134766  0.6936973935557518  0.0268231034813482  1.0000
  H   H23       1.0  0.7406256091955826  0.7128599430469933  0.9482484348751399  1.0000
  H   H24       1.0  0.6855720378907648  0.6057848427702268  0.2020754428084999  1.0000
  H   H25       1.0  0.7393647419130078  0.5386717844763143  0.1313839215467709  1.0000
  H   H26       1.0  0.32253541053516716  0.9609225596860967  0.08164780866134437  1.0000
  H   H27       1.0  0.3063043273548729  0.13704034219433228  0.026823241613456592  1.0000
  H   H28       1.0  0.2871412097433819  0.027766264386435965  0.94824918897973  1.0000
  H   H29       1.0  0.39421577448725753  0.07978609724746384  0.2020763554136451  1.0000
  H   H30       1.0  0.46132888223668544  0.20069184464691858  0.1313856429455882  1.0000
  H   H31       1.0  0.3225362858056968  0.3616117250412572  0.5816489377485892  1.0000
  H   H32       1.0  0.3063042240837249  0.16926365700765442  0.5268234347324138  1.0000
  H   H33       1.0  0.2871420228755142  0.2593755225067724  0.4482491720957426  1.0000
  H   H34       1.0  0.3942172025624658  0.3144293920637438  0.7020760048355753  1.0000
  H   H35       1.0  0.4613301614313912  0.2606365837554065  0.6313844967625214  1.0000
  H   H36       1.0  0.03907837766360008  0.6774657692645861  0.581648378508788  1.0000
  H   H37       1.0  0.8629591388349596  0.6936959502435514  0.5268239643647589  1.0000
  H   H38       1.0  0.9722341148446176  0.7128587804642238  0.4482490168007871  1.0000
  H   H39       1.0  0.9202135590417203  0.605783828848203  0.702075689990366  1.0000
  H   H40       1.0  0.799307264869448  0.5386693822312623  0.6313841124496876  1.0000
  H   H41       1.0  0.6383870574840956  0.9609210256793831  0.5816474030942089  1.0000
  H   H42       1.0  0.8307361395098739  0.1370403436868061  0.526822903239939  1.0000
  H   H43       1.0  0.7406238627769  0.02776608050189834  0.44824848456137534  1.0000
  H   H44       1.0  0.6855714442450421  0.07978527605904163  0.7020766208656893  1.0000
  H   H45       1.0  0.7393626358813137  0.20069118906960887  0.6313845462863767  1.0000
  H   H46       1.0  0.9609209401281759  0.6383868052934929  0.9183519795598584  1.0000
  H   H47       1.0  0.1370397172637184  0.8307355769197217  0.97317721194009  1.0000
  H   H48       1.0  0.02776517479439623  0.7406245370781405  0.0517510900133971  1.0000
  H   H49       1.0  0.07978498970272344  0.6855712955929932  0.7979239728043338  1.0000
  H   H50       1.0  0.20069070894729893  0.7393630904195093  0.8686155414455639  1.0000
  H   H51       1.0  0.36161174778939653  0.3225356151842719  0.9183529333344466  1.0000
  H   H52       1.0  0.16926293024453545  0.30630288007036915  0.9731768720102989  1.0000
  H   H53       1.0  0.2593747513624366  0.28714033057912763  0.0517515406165145  1.0000
  H   H54       1.0  0.31442832266725423  0.3942154308558941  0.7979245326831546  1.0000
  H   H55       1.0  0.2606356186450114  0.46132848914980684  0.8686160539448833  1.0000
  H   H56       1.0  0.677464950022852  0.039077713940024225  0.91835216683031  1.0000
  H   H57       1.0  0.6936952878055608  0.8629591860344732  0.9731767338774517  1.0000
  H   H58       1.0  0.7128587204590816  0.9722344395947644  0.051750786512066285  1.0000
  H   H59       1.0  0.6057850164256066  0.9202137460226679  0.7979229411679538  1.0000
  H   H60       1.0  0.5386714783213266  0.7993084289792024  0.8686143325460662  1.0000
  C   C1        1.0  0.55270419686147  0.7349845578452733  0.565493242313913  1.0000
  C   C2        1.0  0.6508183603034968  0.745373335013973  0.5058815967339569  1.0000
  C   C3        1.0  0.5526867772689101  0.6659389608917863  0.3593686813049216  1.0000
  C   C4        1.0  0.4358766874007642  0.5600272246548457  0.3408832140607245  1.0000
  C   C5        1.0  0.18227987502264406  0.44729444499093773  0.5654936097232266  1.0000
  C   C6        1.0  0.09455400150687156  0.34918067209229514  0.5058811528888681  1.0000
  C   C7        1.0  0.11325047574784722  0.4473129300070653  0.3593690726159124  1.0000
  C   C8        1.0  0.12414616209654382  0.564121614360566  0.3408817585541541  1.0000
  C   C9        1.0  0.2650170525487356  0.8177214892863207  0.5654925259942517  1.0000
  C   C10       1.0  0.2546269688740638  0.9054463629716379  0.5058815760292674  1.0000
  C   C11       1.0  0.334061816217698  0.8867506776647431  0.35936807946426086  1.0000
  C   C12       1.0  0.43997455543851777  0.8758537712528637  0.3408813896167544  1.0000
  C   C13       1.0  0.8177207283846857  0.2650163135255356  0.9345070241022027  1.0000
  C   C14       1.0  0.9054465569165514  0.25462715647443446  0.9941180506390097  1.0000
  C   C15       1.0  0.8867501279628914  0.33406095999576746  0.1406312641533134  1.0000
  C   C16       1.0  0.8758532189143795  0.43997366190291143  0.15911125897903838  1.0000
  C   C17       1.0  0.7349870436459798  0.5527057690342049  0.9345065107108892  1.0000
  C   C18       1.0  0.7453755039328767  0.6508204367076827  0.9941175848123435  1.0000
  C   C19       1.0  0.665940406588881  0.5526879172430555  0.14062998123957018  1.0000
  C   C20       1.0  0.5600269581757615  0.43587963932009893  0.1591097966833743  1.0000
  C   C21       1.0  0.44729536516994267  0.18228012174773767  0.9345075284161836  1.0000
  C   C22       1.0  0.3491816943443098  0.09455441812507104  0.9941184434269201  1.0000
  C   C23       1.0  0.4473124552711951  0.11325079615487252  0.1406316540048991  1.0000
  C   C24       1.0  0.5641209497513701  0.12414538531319164  0.15911162649985758  1.0000
  C   C25       1.0  0.447295418298964  0.2650149703835326  0.43450673317699534  1.0000
  C   C26       1.0  0.34918200025452256  0.2546269386121482  0.4941183787576904  1.0000
  C   C27       1.0  0.4473135832891089  0.33406131273433454  0.6406312941867254  1.0000
  C   C28       1.0  0.5641236731572549  0.4399730489712753  0.6591167614309298  1.0000
  C   C29       1.0  0.8177201704933382  0.5527046528827882  0.4345063657675396  1.0000
  C   C30       1.0  0.9054456136528448  0.6508188561356152  0.494118143692141  1.0000
  C   C31       1.0  0.8867494544546164  0.5526877739741421  0.6406309028758839  1.0000
  C   C32       1.0  0.8758545135027873  0.4358798350170477  0.6591175380284823  1.0000
  C   C33       1.0  0.7349833080092766  0.1822787843398004  0.4345074494973957  1.0000
  C   C34       1.0  0.7453729613283926  0.09455434100956943  0.49411839946252906  1.0000
  C   C35       1.0  0.6659385443403211  0.11324959596137772  0.6406318960273865  1.0000
  C   C36       1.0  0.5600258051195014  0.1241465023732573  0.6591185858749  1.0000
  C   C37       1.0  0.18227963217262294  0.7349839600996902  0.0654922724795455  1.0000
  C   C38       1.0  0.0945538036414604  0.7453731171516865  0.0058819248526447  1.0000
  C   C39       1.0  0.1132502325951279  0.6659393136303535  0.859368711338341  1.0000
  C   C40       1.0  0.12414639624605434  0.5600258663259012  0.8408887165118699  1.0000
  C   C41       1.0  0.26501331691203944  0.4472945045919162  0.065493464780765  1.0000
  C   C42       1.0  0.2546248566251421  0.34917983691843807  0.005882390679303698  1.0000
  C   C43       1.0  0.3340599539691382  0.44731235638306543  0.859369994252084  1.0000
  C   C44       1.0  0.4399729720259915  0.5641210646602064  0.840889499898523  1.0000
  C   C45       1.0  0.5527042499904908  0.8177194064810679  0.0654924470747318  1.0000
  C   C46       1.0  0.6508186662137091  0.9054458555010498  0.005881532064734098  1.0000
  C   C47       1.0  0.552688335641662  0.8867490471152594  0.8593676425767001  1.0000
  C   C48       1.0  0.43587909576461936  0.8758537125605343  0.8408883489909087  1.0000
  N   N1        1.0  0.6111390835563386  0.6518514491828997  0.4391161636955444  1.0000
  N   N2        1.0  0.04071076538509299  0.38885965605982165  0.439116483172988  1.0000
  N   N3        1.0  0.34814841087526815  0.9592898597047751  0.439116284337551  1.0000
  N   N4        1.0  0.9592887379107183  0.34814781165853503  0.0608831450501128  1.0000
  N   N5        1.0  0.6518526737745843  0.611139986234619  0.06088254277528189  1.0000
  N   N6        1.0  0.38885972100710825  0.04071167327978035  0.0608841137493243  1.0000
  N   N7        1.0  0.3888605316040954  0.34814807904590606  0.560883811795364  1.0000
  N   N8        1.0  0.9592884194197852  0.6111403025240706  0.5608834923180692  1.0000
  N   N9        1.0  0.651851949682751  0.04071041392134596  0.5608836911541033  1.0000
  N   N10       1.0  0.04071087724971519  0.6518517165702704  0.9391168304407954  1.0000
  N   N11       1.0  0.3481469413858491  0.38885954199419354  0.9391174327156335  1.0000
  N   N12       1.0  0.6111398941533255  0.9592878549490252  0.9391158617415838  1.0000
  O   O1        1.0  0.45504458245518004  0.6429643519260182  0.5574338099148477  1.0000
  O   O2        1.0  0.5711692098097885  0.8144395242907406  0.6208081646799711  1.0000
  O   O3        1.0  0.39808338106339397  0.47493446341088236  0.39558970511502867  1.0000
  O   O4        1.0  0.3798410815011837  0.5605841951188568  0.2722386159815358  1.0000
  O   O5        1.0  0.1879197828680859  0.5449546277448647  0.5574343373039525  1.0000
  O   O6        1.0  0.2432698115881068  0.42882960781722096  0.6208078014700574  1.0000
  O   O7        1.0  0.07685277160538122  0.601917234022416  0.395591044274603  1.0000
  O   O8        1.0  0.1807354753715915  0.6201557296376168  0.27223519708415  1.0000
  O   O9        1.0  0.3570363033863586  0.8120819107175451  0.5574338913092445  1.0000
  O   O10       1.0  0.18556078635369033  0.7567300894677657  0.6208073230003919  1.0000
  O   O11       1.0  0.5250647520028126  0.9231492939347132  0.3955900454194534  1.0000
  O   O12       1.0  0.43941753508447334  0.81926103670331  0.2722367712347591  1.0000
  O   O13       1.0  0.8120796405097508  0.3570340235340624  0.9425657443121265  1.0000
  O   O14       1.0  0.756728551501169  0.18555760009994773  0.8791920880338253  1.0000
  O   O15       1.0  0.9231505362249878  0.5250647440746832  0.1044129179041136  1.0000
  O   O16       1.0  0.8192542128863497  0.43941125164152367  0.22776328877911564  1.0000
  O   O17       1.0  0.6429687465014595  0.4550472719126547  0.9425630396655007  1.0000
  O   O18       1.0  0.8144464022543619  0.5711751384088334  0.8791916853018975  1.0000
  O   O19       1.0  0.47493519438793896  0.39808651457682487  0.1044126886959376  1.0000
  O   O20       1.0  0.5605894766112982  0.37984185524436503  0.2277624867511108  1.0000
  O   O21       1.0  0.5449540301545  0.18792019554633302  0.9425648663850836  1.0000
  O   O22       1.0  0.42882863941594723  0.2432715970565766  0.8791940576847209  1.0000
  O   O23       1.0  0.6019160538662194  0.07685234345428445  0.10441115720426808  1.0000
  O   O24       1.0  0.6201563932760976  0.18074114999988214  0.22776712531430823  1.0000
  O   O25       1.0  0.5449550327052535  0.35703517630278736  0.4425661655760678  1.0000
  O   O26       1.0  0.42883040535063804  0.18556000393806477  0.3791918108109441  1.0000
  O   O27       1.0  0.6019162340963291  0.5250650648170209  0.6044095914659806  1.0000
  O   O28       1.0  0.6201595940995758  0.4394172542605688  0.7277620384209058  1.0000
  O   O29       1.0  0.8120805776899332  0.45504564588125646  0.44256563818770184  1.0000
  O   O30       1.0  0.7567293732174889  0.5711703507675736  0.379192852930906  1.0000
  O   O31       1.0  0.9231471585970824  0.3980834699587915  0.6044089312171934  1.0000
  O   O32       1.0  0.8192644548308722  0.37984497434359116  0.7277647784076533  1.0000
  O   O33       1.0  0.6429640571716604  0.1879183629085759  0.44256608418240967  1.0000
  O   O34       1.0  0.8144395742043287  0.24327018415835516  0.3791926524912554  1.0000
  O   O35       1.0  0.47493486315762107  0.0768502342940921  0.6044099300714618  1.0000
  O   O36       1.0  0.5605832558291015  0.18073880656772454  0.727763204256739  1.0000
  O   O37       1.0  0.18791954429512  0.6429659350498297  0.057434231178930886  1.0000
  O   O38       1.0  0.24327180905685022  0.8144426735261733  0.12080788745782907  1.0000
  O   O39       1.0  0.0768498243330243  0.47493552955143764  0.8955870575875406  1.0000
  O   O40       1.0  0.18074614767166974  0.5605890219845976  0.7722366867125388  1.0000
  O   O41       1.0  0.35703161405655953  0.5449530017134663  0.0574369358261535  1.0000
  O   O42       1.0  0.1855539583036575  0.4288251352172879  0.12080829018974978  1.0000
  O   O43       1.0  0.5250651661700804  0.6019137590492963  0.8955872867957096  1.0000
  O   O44       1.0  0.43941013854913546  0.6201576729844477  0.7722374887398047  1.0000
  O   O45       1.0  0.4550455850059335  0.8120793326824796  0.0574351091058318  1.0000
  O   O46       1.0  0.5711717211420722  0.7567286765695443  0.12080591780693337  1.0000
  O   O47       1.0  0.3980832462528953  0.9231460090230286  0.895589497195658  1.0000
  O   O48       1.0  0.37984322188433595  0.8192583782289233  0.7722328501766071  1.0000
