data_image0
_chemical_formula_structural       Cu2H8C12N8Cl4
_chemical_formula_sum              "Cu2 H8 C12 N8 Cl4"
_cell_length_a       7.6861239136447805
_cell_length_b       8.830156450084012
_cell_length_c       8.830160541022076
_cell_angle_alpha    62.18582671706806
_cell_angle_beta     64.18957807626683
_cell_angle_gamma    64.18960128920773

_space_group_name_H-M_alt    "P 1"
_space_group_IT_number       1

loop_
  _space_group_symop_operation_xyz
  'x, y, z'

loop_
  _atom_site_type_symbol
  _atom_site_label
  _atom_site_symmetry_multiplicity
  _atom_site_fract_x
  _atom_site_fract_y
  _atom_site_fract_z
  _atom_site_occupancy
  Cu  Cu1       1.0  0.24999958601418365  0.5000164645800425  0.499982384347824  1.0000
  Cu  Cu2       1.0  0.7500000238822228  0.4999823762278837  0.5000180637521511  1.0000
  H   H1        1.0  0.16199463241635942  0.336421668579149  0.9040345549351374  1.0000
  H   H2        1.0  0.40242384920752977  0.6637873593005138  0.0959356493779993  1.0000
  H   H3        1.0  0.3380032055419875  0.09596527864332655  0.6635774939903814  1.0000
  H   H4        1.0  0.09757874151412721  0.9040643173816532  0.3362087015470081  1.0000
  H   H5        1.0  0.8380069748258736  0.6635804100600778  0.09596454322255  1.0000
  H   H6        1.0  0.5975825280895893  0.33620850390916956  0.9040634734900908  1.0000
  H   H7        1.0  0.6619909975355468  0.904034078233373  0.3364216156584092  1.0000
  H   H8        1.0  0.9024132150541816  0.09593659530474234  0.6637957490039172  1.0000
  C   C1        1.0  0.03581167810075688  0.3468000884797389  0.8713942183898101  1.0000
  C   C2        1.0  0.2540437213940195  0.6533177640358119  0.12855831162525533  1.0000
  C   C3        1.0  0.4641902596064114  0.12860963250199114  0.6531975017724109  1.0000
  C   C4        1.0  0.24595863739562443  0.8714412009841651  0.3466815078133649  1.0000
  C   C5        1.0  0.9641976023241768  0.653199208188255  0.1286062271902679  1.0000
  C   C6        1.0  0.7459565470298416  0.34668331107013733  0.8714421274243521  1.0000
  C   C7        1.0  0.5358050449622669  0.8713924115326178  0.34680026021647603  1.0000
  C   C8        1.0  0.7540438973920657  0.12855760821931742  0.6533189402074414  1.0000
  C   C9        1.0  0.8519470422891616  0.3118565185924069  0.9841830873726424  1.0000
  C   C10       1.0  0.1480554924985214  0.6881422906110828  0.015817360648164004  1.0000
  C   C11       1.0  0.6480486674429783  0.01581930240647723  0.6881433228371847  1.0000
  C   C12       1.0  0.3519441651254102  0.98418287104608  0.3118557755580156  1.0000
  N   N1        1.0  0.036881287661636064  0.4012779533184839  0.6999993358672612  1.0000
  N   N2        1.0  0.13816772379291106  0.5987897399854062  0.29998823802412034  1.0000
  N   N3        1.0  0.46311880061448096  0.3000003382635511  0.5987212938362846  1.0000
  N   N4        1.0  0.3618349180976923  0.7000092854771296  0.4012099291506814  1.0000
  N   N5        1.0  0.9631232662353496  0.5987206286535525  0.2999984394200937  1.0000
  N   N6        1.0  0.8618370456678406  0.40121062342475966  0.700010866822389  1.0000
  N   N7        1.0  0.5368780900271019  0.7000006706333294  0.40127780896534665  1.0000
  N   N8        1.0  0.6381613239437415  0.29998913407535344  0.5987918576379911  1.0000
  Cl  Cl1       1.0  0.7722106276060078  0.24258604388387556  0.21293129447623477  1.0000
  Cl  Cl2       1.0  0.22779189725438445  0.7574131203659886  0.7870664786079047  1.0000
  Cl  Cl3       1.0  0.7277884426066027  0.7870698530883755  0.7574148627485047  1.0000
  Cl  Cl4       1.0  0.2722118258172588  0.2129312220175734  0.24258557630109587  1.0000
