data_image0
_chemical_formula_structural       Zn3H42C46N8O16
_chemical_formula_sum              "Zn3 H42 C46 N8 O16"
_cell_length_a       10.275965445907435
_cell_length_b       10.802431596746127
_cell_length_c       12.546624542473978
_cell_angle_alpha    109.3211643540159
_cell_angle_beta     106.1338877314946
_cell_angle_gamma    95.74337665740784

_space_group_name_H-M_alt    "P 1"
_space_group_IT_number       1

loop_
  _space_group_symop_operation_xyz
  'x, y, z'

loop_
  _atom_site_type_symbol
  _atom_site_label
  _atom_site_symmetry_multiplicity
  _atom_site_fract_x
  _atom_site_fract_y
  _atom_site_fract_z
  _atom_site_occupancy
  Zn  Zn1       1.0  0.999998822097723  0.5000011938274652  0.49999858866397057  1.0000
  Zn  Zn2       1.0  0.5311801695321705  0.2524896778724469  0.6774377129566602  1.0000
  Zn  Zn3       1.0  0.46882040242899586  0.7475059714449657  0.32256284743005637  1.0000
  H   H1        1.0  0.17999469196293916  0.9212015135001224  0.6160286496583325  1.0000
  H   H2        1.0  0.8200029038953645  0.0787991515195188  0.3839710956658777  1.0000
  H   H3        1.0  0.03729660472040308  0.29189743341567015  0.6796918551397368  1.0000
  H   H4        1.0  0.9627058328134837  0.708102245046767  0.3203070951950479  1.0000
  H   H5        1.0  0.7910636094185151  0.944901125416756  0.677477201045555  1.0000
  H   H6        1.0  0.20894073239810504  0.05510255526946391  0.3225273135047999  1.0000
  H   H7        1.0  0.39215350422676915  0.9761850503837266  0.21434639873499603  1.0000
  H   H8        1.0  0.6078435256457057  0.023817610893516403  0.7856561861473778  1.0000
  H   H9        1.0  0.17885490244032096  0.8434381812865794  0.048827665758750395  1.0000
  H   H10       1.0  0.8211450906316812  0.15655947326219186  0.9511733427636386  1.0000
  H   H11       1.0  0.10655957284031806  0.8979199370095401  0.8647862701611048  1.0000
  H   H12       1.0  0.8934385331534074  0.10207370335044892  0.1352123627090549  1.0000
  H   H13       1.0  0.2540682315037159  0.08459893134268272  0.8508143507203272  1.0000
  H   H14       1.0  0.7459264594566976  0.9153977202403214  0.14918199439745913  1.0000
  H   H15       1.0  0.6420788002586805  0.12085172295399363  0.2542333681756617  1.0000
  H   H16       1.0  0.35791936588655193  0.8791469428167956  0.7457643347312056  1.0000
  H   H17       1.0  0.6303140578662366  0.2713320240331711  0.2296732092635665  1.0000
  H   H18       1.0  0.36968454720944516  0.7286686462168249  0.7703259663331607  1.0000
  H   H19       1.0  0.4700377001937994  0.23201930661284825  0.9161612580942631  1.0000
  H   H20       1.0  0.5299580042851062  0.7679773472092608  0.08383531443687524  1.0000
  H   H21       1.0  0.594672896789568  0.2784602626461208  0.05944315968140762  1.0000
  H   H22       1.0  0.4053274492547061  0.7215343889185633  0.9405554686491302  1.0000
  H   H23       1.0  0.6305648142381061  0.1311088102915861  0.4490977822339062  1.0000
  H   H24       1.0  0.36943559625879624  0.8688908636926413  0.5509007132741813  1.0000
  H   H25       1.0  0.36194365320558575  0.39833648761430857  0.5123012836044296  1.0000
  H   H26       1.0  0.6380575706995798  0.601662172908796  0.48770029010582755  1.0000
  H   H27       1.0  0.39320994100089013  0.3636423490731602  0.29276807780283315  1.0000
  H   H28       1.0  0.606786436927578  0.636357300998391  0.7072334937560072  1.0000
  H   H29       1.0  0.602938855543961  0.4933583478726221  0.2170980414837516  1.0000
  H   H30       1.0  0.3970619251296483  0.5066383111625187  0.7829012623958178  1.0000
  H   H31       1.0  0.21777287925178251  0.5826450235122492  0.07346181086656856  1.0000
  H   H32       1.0  0.7822292053098394  0.41735765793427493  0.9265395196600679  1.0000
  H   H33       1.0  0.2321885122847434  0.3339048961983623  0.9195352205334331  1.0000
  H   H34       1.0  0.7678123285403801  0.6660967882475718  0.08046315338284417  1.0000
  H   H35       1.0  0.8146339771986604  0.5760920645638166  0.3407630207407805  1.0000
  H   H36       1.0  0.18536751987157624  0.42391262809656644  0.6592371636398652  1.0000
  H   H37       1.0  0.8998897186694137  0.4812348669528248  0.2755303990276872  1.0000
  H   H38       1.0  0.10011236159109417  0.5187678174849496  0.7244701343581141  1.0000
  H   H39       1.0  0.8360308579822658  0.4200048143579311  0.6190086281674141  1.0000
  H   H40       1.0  0.1639691952412576  0.5799978656016337  0.38099145039169  1.0000
  H   H41       1.0  0.8554755342966658  0.576252010945332  0.6312170410228645  1.0000
  H   H42       1.0  0.1445275723856767  0.42375066675779754  0.3687861111987941  1.0000
  C   C1        1.0  0.9841065175642854  0.9191975568616967  0.6456502370186  1.0000
  C   C2        1.0  0.01589411884950919  0.08080311487526609  0.35435019054565947  1.0000
  C   C3        1.0  0.10416893054872389  0.9805017721911187  0.635911084333877  1.0000
  C   C4        1.0  0.8958298961427431  0.019499898802855905  0.36408922617819434  1.0000
  C   C5        1.0  0.1273958331491443  0.1163718371616014  0.652616358232322  1.0000
  C   C6        1.0  0.872604011361929  0.8836298330802353  0.34738497683392916  1.0000
  C   C7        1.0  0.024758895339786587  0.187917205551841  0.6717809697203521  1.0000
  C   C8        1.0  0.9752415194582227  0.8120824654411366  0.3282183229285637  1.0000
  C   C9        1.0  0.9029568401564346  0.1272440173581373  0.6794978115924835  1.0000
  C   C10       1.0  0.09704524870629426  0.8727586610971373  0.3205043160749881  1.0000
  C   C11       1.0  0.8840079850499122  0.9929831755177077  0.6691214752225321  1.0000
  C   C12       1.0  0.1159951130302019  0.007019508167928701  0.3308800827174565  1.0000
  C   C13       1.0  0.9645036404859225  0.7741781150301179  0.6311317293293469  1.0000
  C   C14       1.0  0.035498013747471184  0.22582255595469997  0.3688697227890998  1.0000
  C   C15       1.0  0.2612558881563771  0.1865344989542521  0.6547476167888746  1.0000
  C   C16       1.0  0.7387485893178365  0.8134651750126524  0.3452541797951127  1.0000
  C   C17       1.0  0.7954142603213796  0.20899201525726602  0.6964191155926756  1.0000
  C   C18       1.0  0.20458434905541617  0.7910086520014802  0.3035808571448796  1.0000
  C   C19       1.0  0.4449201513768557  0.1081878182447795  0.12856950222519709  1.0000
  C   C20       1.0  0.5550759963336063  0.8918108370652933  0.8714293401366291  1.0000
  C   C21       1.0  0.3629116790277038  0.0002202661805271002  0.1341869000068812  1.0000
  C   C22       1.0  0.6370872919235779  0.9997773921116392  0.8658122868204927  1.0000
  C   C23       1.0  0.2420934995861329  0.9249576140248762  0.040711358026626905  1.0000
  C   C24       1.0  0.7579034486292713  0.07504003679782299  0.9592881711148706  1.0000
  C   C25       1.0  0.20165231293832153  0.955533333065567  0.9380841373850829  1.0000
  C   C26       1.0  0.7983455714396187  0.04445930655044349  0.06191336056972568  1.0000
  C   C27       1.0  0.2839094481969369  0.06134415636030611  0.9312779132124405  1.0000
  C   C28       1.0  0.716087056786904  0.9386514929744295  0.06871934609836927  1.0000
  C   C29       1.0  0.4050218305634771  0.13915842916019025  0.025441732999411167  1.0000
  C   C30       1.0  0.594972494521329  0.8608412343806509  0.9745546008877283  1.0000
  C   C31       1.0  0.5707767405099843  0.1867132690670203  0.23756939253438952  1.0000
  C   C32       1.0  0.4292198289264846  0.8132874026872658  0.7624277339539705  1.0000
  C   C33       1.0  0.48319635762360497  0.2556449305189972  0.01109416393914839  1.0000
  C   C34       1.0  0.5167993382530794  0.7443517292856114  0.9889008143103266  1.0000
  C   C35       1.0  0.5651020162328848  0.202393364610856  0.4402178880796512  1.0000
  C   C36       1.0  0.434899846712959  0.79760831609169  0.5597823075316413  1.0000
  C   C37       1.0  0.42435885110744914  0.3396850449937219  0.46795602302890427  1.0000
  C   C38       1.0  0.5756415679916669  0.6603146230080059  0.5320440667608466  1.0000
  C   C39       1.0  0.43972134080203057  0.32401660982899483  0.35960275911887146  1.0000
  C   C40       1.0  0.5602792913106498  0.6759840648992109  0.64039687130456  1.0000
  C   C41       1.0  0.5001211354824378  0.48536641570019173  0.1583718505559659  1.0000
  C   C42       1.0  0.4998794450809497  0.514629227634721  0.8416303041124138  1.0000
  C   C43       1.0  0.3003148106498442  0.5276817729110306  0.07947591632709816  1.0000
  C   C44       1.0  0.6996862560921713  0.472320909287646  0.920524389645351  1.0000
  C   C45       1.0  0.30586757336335785  0.4047233869986612  0.003371079408765323  1.0000
  C   C46       1.0  0.6941340722678221  0.5952772899686495  0.9966287784280186  1.0000
  N   N1        1.0  0.5031898018732477  0.263680304808105  0.5174552035739879  1.0000
  N   N2        1.0  0.4968106172258757  0.7363193631936228  0.4825448862157629  1.0000
  N   N3        1.0  0.5296282078417319  0.23783897992126413  0.3439681373497194  1.0000
  N   N4        1.0  0.47037242427094844  0.7621616948069417  0.6560314930737121  1.0000
  N   N5        1.0  0.4222694992528274  0.5772201791659199  0.17589518453134179  1.0000
  N   N6        1.0  0.5777339517995587  0.4227795015356294  0.8241039932167951  1.0000
  N   N7        1.0  0.433006466514925  0.37962839771123674  0.054843190302740666  1.0000
  N   N8        1.0  0.5669924958341355  0.6203692665634293  0.945154402242963  1.0000
  O   O1        1.0  0.020272601240513624  0.7020722141215997  0.5599622955156177  1.0000
  O   O2        1.0  0.9797292832108865  0.2979294516246966  0.4400418857998431  1.0000
  O   O3        1.0  0.8976369750238647  0.7360281065238186  0.6893831615367958  1.0000
  O   O4        1.0  0.1023606337377601  0.2639725495220659  0.3106189752099127  1.0000
  O   O5        1.0  0.6787395175826775  0.1461306399287992  0.692041117391483  1.0000
  O   O6        1.0  0.32125909179411843  0.853870027329947  0.3079588553460724  1.0000
  O   O7        1.0  0.8207349137795318  0.331426896599993  0.7120728509709336  1.0000
  O   O8        1.0  0.17926469191131386  0.6685737848628577  0.2879241606166474  1.0000
  O   O9        1.0  0.2719835298720739  0.3005849896039479  0.646880768646156  1.0000
  O   O10       1.0  0.7280211563145897  0.6994156940806916  0.35311977143068407  1.0000
  O   O11       1.0  0.36474518201890765  0.1278065150417333  0.6693327817698247  1.0000
  O   O12       1.0  0.6352564034607511  0.8721891365147842  0.33066800603024393  1.0000
  O   O13       1.0  0.8399971849587827  0.48558905366788707  0.3241552873905746  1.0000
  O   O14       1.0  0.1600061347371167  0.5144146307617278  0.6758474054647579  1.0000
  O   O15       1.0  0.8412282516399969  0.47994939193291936  0.5746476680598959  1.0000
  O   O16       1.0  0.15877629458795178  0.5200553014622784  0.4253547928424695  1.0000
