data_image0
_chemical_formula_structural       Ca4H40C20O24
_chemical_formula_sum              "Ca4 H40 C20 O24"
_cell_length_a       6.846635191225667
_cell_length_b       12.310945000740984
_cell_length_c       11.653716054528317
_cell_angle_alpha    96.34480931696221
_cell_angle_beta     88.84897448141685
_cell_angle_gamma    93.30174442360291

_space_group_name_H-M_alt    "P 1"
_space_group_IT_number       1

loop_
  _space_group_symop_operation_xyz
  'x, y, z'

loop_
  _atom_site_type_symbol
  _atom_site_label
  _atom_site_symmetry_multiplicity
  _atom_site_fract_x
  _atom_site_fract_y
  _atom_site_fract_z
  _atom_site_occupancy
  Ca  Ca1       1.0  0.53067274699999  0.5610465825404347  0.3544522174549768  1.0000
  Ca  Ca2       1.0  0.46932936620211047  0.43895558369397497  0.6455400705537782  1.0000
  Ca  Ca3       1.0  0.05371452329003292  0.7189987827312195  0.32285768300273787  1.0000
  Ca  Ca4       1.0  0.946282380702087  0.2809943935913708  0.6771301140580873  1.0000
  H   H1        1.0  0.610219487021496  0.9372647231850592  0.24433633389023154  1.0000
  H   H2        1.0  0.38977013398655214  0.06274651167279188  0.7556637615308757  1.0000
  H   H3        1.0  0.7006961574378892  0.95259623735965  0.3872339870758238  1.0000
  H   H4        1.0  0.2992866041140517  0.047407659899597804  0.6127686613172684  1.0000
  H   H5        1.0  0.4425082974672138  0.9544376341884513  0.3622657243834481  1.0000
  H   H6        1.0  0.5574705691451527  0.0455597327788055  0.6377404482857612  1.0000
  H   H7        1.0  0.6269117126909266  0.8258029834189105  0.6133895590356174  1.0000
  H   H8        1.0  0.3730845157119376  0.17419920867551042  0.3866035483496261  1.0000
  H   H9        1.0  0.47330170221810164  0.8371885628572002  0.7390647606383495  1.0000
  H   H10       1.0  0.5266935487553611  0.1628079073834172  0.2609337006620933  1.0000
  H   H11       1.0  0.3703997453070187  0.8171636018625604  0.5967127131449954  1.0000
  H   H12       1.0  0.6295962268757833  0.1828246722770501  0.4032813896559232  1.0000
  H   H13       1.0  0.9722934110674334  0.31843846660306235  0.302005049668807  1.0000
  H   H14       1.0  0.027684510393982006  0.6815605357038166  0.6979952918959282  1.0000
  H   H15       1.0  0.87797144215007  0.35778801532214294  0.44074540161089704  1.0000
  H   H16       1.0  0.12201808484527993  0.6422232217988509  0.5592564104801312  1.0000
  H   H17       1.0  0.13854015062002395  0.345689349720054  0.4186812825236501  1.0000
  H   H18       1.0  0.8614513450466321  0.654301407636254  0.5813199382078834  1.0000
  H   H19       1.0  0.859410959683004  0.655852011925191  0.8709432243403935  1.0000
  H   H20       1.0  0.14060144703415034  0.3441599584001693  0.12906913709398535  1.0000
  H   H21       1.0  0.9472843983397755  0.5388354682013059  0.9293690838251006  1.0000
  H   H22       1.0  0.05272156366080341  0.46117407915573233  0.07064896652573079  1.0000
  H   H23       1.0  0.11518880605291328  0.632965858420967  0.8706819283573919  1.0000
  H   H24       1.0  0.8848179822597972  0.36702892415267024  0.12931556554517698  1.0000
  H   H25       1.0  0.9601206374084369  0.03156466615757131  0.10012902157776438  1.0000
  H   H26       1.0  0.03989135318292372  0.9684432103399205  0.8998820140719983  1.0000
  H   H27       1.0  0.12355628607823384  0.13166117777339537  0.17564915335961465  1.0000
  H   H28       1.0  0.876449792980509  0.8683360841810599  0.8243666460469184  1.0000
  H   H29       1.0  0.8796746355163166  0.1143032060774445  0.225949959832448  1.0000
  H   H30       1.0  0.12033008226568853  0.8856915973887567  0.7740586826849877  1.0000
  H   H31       1.0  0.9819383267368098  0.8376603227064265  0.11842457854681497  1.0000
  H   H32       1.0  0.018068247732522014  0.16234838913775457  0.8815805032896832  1.0000
  H   H33       1.0  0.4707094848881753  0.4765084164137718  0.128046378818901  1.0000
  H   H34       1.0  0.5292538568189331  0.5234832893892117  0.8719641920343688  1.0000
  H   H35       1.0  0.3588391689646357  0.5828536692044963  0.12187097697337627  1.0000
  H   H36       1.0  0.6411352778417839  0.4171404342310368  0.8781287841725384  1.0000
  H   H37       1.0  0.12222901897403202  0.9168876141405278  0.44537372427066646  1.0000
  H   H38       1.0  0.8777663905188933  0.08309985277556108  0.5546288683899191  1.0000
  H   H39       1.0  0.9974579493062592  0.8784550742576372  0.5475792285441513  1.0000
  H   H40       1.0  0.0025415122594338994  0.12153074042831952  0.4524257813603043  1.0000
  C   C1        1.0  0.5616958455552492  0.7950992421697906  0.3313864481497645  1.0000
  C   C2        1.0  0.4382953386175573  0.20490623862595206  0.6685992692220848  1.0000
  C   C3        1.0  0.578911458252776  0.9176952727726471  0.3329338151672444  1.0000
  C   C4        1.0  0.42107441022098874  0.08230860759608301  0.6670654193652509  1.0000
  C   C5        1.0  0.4854190645477132  0.6734953616162329  0.6522656633147361  1.0000
  C   C6        1.0  0.5145694274427939  0.32651505070030845  0.3477266038621848  1.0000
  C   C7        1.0  0.4886099941987043  0.7958919760504627  0.6513900480767417  1.0000
  C   C8        1.0  0.5113898217585344  0.20410529191993024  0.34860681926257087  1.0000
  C   C9        1.0  0.021984332616483488  0.4883179507314565  0.3596408192070583  1.0000
  C   C10       1.0  0.9780282036352123  0.5116743469696631  0.6403529998443602  1.0000
  C   C11       1.0  0.0033880839943450165  0.3703075724770387  0.3830437569786581  1.0000
  C   C12       1.0  0.9966062632894648  0.6296938151812485  0.616955255521752  1.0000
  C   C13       1.0  0.002030087269311278  0.6924603991569213  0.03412699476681518  1.0000
  C   C14       1.0  0.9979998784465567  0.30755231665394683  0.9658864353678777  1.0000
  C   C15       1.0  0.9764062523667862  0.6257397621592703  0.9196340313428022  1.0000
  C   C16       1.0  0.02361012765935301  0.37426152937263885  0.08036255224700277  1.0000
  C   C17       1.0  0.06436554280767841  0.9893538135741409  0.2642271814459035  1.0000
  C   C18       1.0  0.9356576118447038  0.0106507427041365  0.7357861331659663  1.0000
  C   C19       1.0  0.003222270153344199  0.0704181560486674  0.1855804672637404  1.0000
  C   C20       1.0  0.9967803637563295  0.9295832058326922  0.8144271870239875  1.0000
  O   O1        1.0  0.716084588065627  0.742240895603274  0.3356056103114112  1.0000
  O   O2        1.0  0.28392687956664997  0.25776775635061  0.6643634409360073  1.0000
  O   O3        1.0  0.39413569430639234  0.7444007885575914  0.32538263062955497  1.0000
  O   O4        1.0  0.6058589336292217  0.2556014131136664  0.674613042020944  1.0000
  O   O5        1.0  0.49900136780905074  0.6139016702780182  0.5545260204242337  1.0000
  O   O6        1.0  0.5009866799360055  0.3860948286100054  0.4454706755081971  1.0000
  O   O7        1.0  0.4687997257242032  0.6310326155529253  0.7465916775169033  1.0000
  O   O8        1.0  0.5311895906711612  0.36896552328408916  0.2534120818146873  1.0000
  O   O9        1.0  0.18949704815391755  0.5365515017606767  0.3471585015914583  1.0000
  O   O10       1.0  0.8105068226486198  0.46344247237477276  0.6528371626720284  1.0000
  O   O11       1.0  0.8685606112102777  0.5410682712618069  0.3524513961577397  1.0000
  O   O12       1.0  0.13144245961914441  0.4589248724113232  0.6475304315168344  1.0000
  O   O13       1.0  0.0816570220243875  0.6567886249790859  0.11732801635813667  1.0000
  O   O14       1.0  0.9183736543317238  0.3432207906485587  0.8826652981127479  1.0000
  O   O15       1.0  0.9395532548435883  0.79194650513287  0.03940207945880301  1.0000
  O   O16       1.0  0.06046383530176773  0.20805315671728408  0.9606046269102887  1.0000
  O   O17       1.0  0.05264192373233102  0.8865854562574215  0.22880671245547285  1.0000
  O   O18       1.0  0.9473808631868722  0.11341418425900682  0.7712026078769721  1.0000
  O   O19       1.0  0.1254691617814103  0.0249085409411833  0.36405712149675645  1.0000
  O   O20       1.0  0.8745417131340435  0.9750919754924041  0.6359582227533876  1.0000
  O   O21       1.0  0.485484683749455  0.5563973038467509  0.14022716349344214  1.0000
  O   O22       1.0  0.5145035027631268  0.4435991627498909  0.8597403393107326  1.0000
  O   O23       1.0  0.09124608528127  0.8507076022512549  0.4867469324960608  1.0000
  O   O24       1.0  0.9087535615372744  0.1492798495132206  0.5132582643882626  1.0000
