data_image0
_chemical_formula_structural       Zn8H23C52Br5O32
_chemical_formula_sum              "Zn8 H23 C52 Br5 O32"
_cell_length_a       18.527823180646198
_cell_length_b       18.74881202241789
_cell_length_c       18.625081008954968
_cell_angle_alpha    120.33071085799865
_cell_angle_beta     89.824307191971
_cell_angle_gamma    120.2846385793538

_space_group_name_H-M_alt    "P 1"
_space_group_IT_number       1

loop_
  _space_group_symop_operation_xyz
  'x, y, z'

loop_
  _atom_site_type_symbol
  _atom_site_label
  _atom_site_symmetry_multiplicity
  _atom_site_fract_x
  _atom_site_fract_y
  _atom_site_fract_z
  _atom_site_occupancy
  Zn  Zn1       1.0  0.4608437961045908  0.41097290556649574  0.5443931602792843  1.0000
  Zn  Zn2       1.0  0.4592669556953554  0.5842874602886495  0.5476157147663228  1.0000
  Zn  Zn3       1.0  0.4633579337839961  0.41442455583960935  0.3744077644836635  1.0000
  Zn  Zn4       1.0  0.6336317658048785  0.5862030841711031  0.5461890656263078  1.0000
  Zn  Zn5       1.0  0.04809027084126441  0.5819019314378338  0.9493377618251555  1.0000
  Zn  Zn6       1.0  0.05002180450345161  0.5950946207833567  0.1283046094520515  1.0000
  Zn  Zn7       1.0  0.0340670707373363  0.40705549111197553  0.9545986158203517  1.0000
  Zn  Zn8       1.0  0.8714233938471523  0.42497416988219777  0.9602421120479075  1.0000
  H   H1        1.0  0.19895297817178204  0.9214862282231022  0.24455234268803838  1.0000
  H   H2        1.0  0.7704855831315386  0.9196645416433213  0.7025256139358474  1.0000
  H   H3        1.0  0.25649443080587997  0.5907491418254904  0.2504113758076015  1.0000
  H   H4        1.0  0.23188233636559374  0.4312840328039016  0.828387744603276  1.0000
  H   H5        1.0  0.28031321815323207  0.5377397557059779  0.7037585579346197  1.0000
  H   H6        1.0  0.906816245184885  0.3969910953561919  0.5801548844838604  1.0000
  H   H7        1.0  0.9146418989185393  0.45936435182904495  0.7327919184250645  1.0000
  H   H8        1.0  0.8016825807087358  0.5897729854011686  0.9825878551586056  1.0000
  H   H9        1.0  0.600807091145839  0.5768194245025524  0.7919528515487639  1.0000
  H   H10       1.0  0.7546383558716131  0.0062912688010641005  0.6438996993012722  1.0000
  H   H11       1.0  0.08026849410855164  0.3106186228029912  0.062272492351112874  1.0000
  H   H12       1.0  0.3256661645252663  0.10306409010217267  0.19001019622641724  1.0000
  H   H13       1.0  0.12508733434826524  0.3807960508074827  0.6222346594533474  1.0000
  H   H14       1.0  0.2932988524497517  0.3069891436060458  0.641323858626542  1.0000
  H   H15       1.0  0.8469476856665709  0.35473750118671893  0.4390273001474724  1.0000
  H   H16       1.0  0.6672337061918372  0.6758338312381867  0.09092420111448972  1.0000
  H   H17       1.0  0.3220586839949746  0.07781893486038881  0.3419397931735943  1.0000
  H   H18       1.0  0.694950141588123  0.4026241323353262  0.10170074341584007  1.0000
  H   H19       1.0  0.8576090139817654  0.5688528233481023  0.2727448335789118  1.0000
  H   H20       1.0  0.6064973060397705  0.42724013427473306  0.1995860034249333  1.0000
  H   H21       1.0  0.7652670879779677  0.5151368525329616  0.34741302736091473  1.0000
  H   H22       1.0  0.6002024602398636  0.9026742353288738  0.7333755029365531  1.0000
  H   H23       1.0  0.7116166171808516  0.4475106255256662  0.5444716980432245  1.0000
  C   C1        1.0  0.6405749745539568  0.7727070072015181  0.6360340696611997  1.0000
  C   C2        1.0  0.7047581179461274  0.6154266817197678  0.9727908868784777  1.0000
  C   C3        1.0  0.6472590397696366  0.611295355812132  0.9173881467010288  1.0000
  C   C4        1.0  0.38232628961371506  0.22561004818940938  0.36489368641927183  1.0000
  C   C5        1.0  0.6457309443449263  0.579889135839899  0.8328066019904978  1.0000
  C   C6        1.0  0.2572824415526329  0.9505706245607611  0.1580147437884065  1.0000
  C   C7        1.0  0.20412094030432842  0.8866127840292322  0.17877590477850458  1.0000
  C   C8        1.0  0.3076055451805502  0.06082335950532781  0.21897977088870849  1.0000
  C   C9        1.0  0.33447562766484396  0.11382563312736238  0.3077939354878082  1.0000
  C   C10       1.0  0.7288969032250137  0.4535227966948411  0.17315989981751298  1.0000
  C   C11       1.0  0.8185272890077969  0.5123719106630062  0.20256624452250083  1.0000
  C   C12       1.0  0.8692084304298789  0.4565697918367846  0.6928207593776248  1.0000
  C   C13       1.0  0.6743198780029972  0.45577369088537256  0.2289760580084347  1.0000
  C   C14       1.0  0.7001921392567282  0.4893848430973549  0.31394201972221225  1.0000
  C   C15       1.0  0.7269267715642087  0.05176157773654918  0.7996769376274171  1.0000
  C   C16       1.0  0.3603950600587283  0.49101395637889306  0.6359500848453762  1.0000
  C   C17       1.0  0.7912501627710924  0.11807977982842031  0.7864612889052649  1.0000
  C   C18       1.0  0.6702860702630534  0.9416559793362254  0.7392659995284205  1.0000
  C   C19       1.0  0.7002782220148802  0.8854220130918191  0.6945308290864741  1.0000
  C   C20       1.0  0.20726133124939142  0.435553001951618  0.1749043525927617  1.0000
  C   C21       1.0  0.20757978778442523  0.5145730214454857  0.19083945094558163  1.0000
  C   C22       1.0  0.27763077037901246  0.453841707326589  0.23335655081615403  1.0000
  C   C23       1.0  0.8155117703558546  0.4898488769442936  0.7303288500410046  1.0000
  C   C24       1.0  0.27872528670950913  0.4637175825330644  0.30991215575880904  1.0000
  C   C25       1.0  0.21468569967176893  0.43170281020205453  0.7724518598921007  1.0000
  C   C26       1.0  0.14433287619868204  0.435090543351727  0.7603217590863023  1.0000
  C   C27       1.0  0.27095207678448235  0.4283778657742944  0.7182196070073416  1.0000
  C   C28       1.0  0.6426170889473892  0.49497607912512354  0.368200500693163  1.0000
  C   C29       1.0  0.2989877075061216  0.4859734220462426  0.6870422612370103  1.0000
  C   C30       1.0  0.8702195674983174  0.5077155588723983  0.14203979869252947  1.0000
  C   C31       1.0  0.10584694107996742  0.4569797546829618  0.8333823588673537  1.0000
  C   C32       1.0  0.1506696635870314  0.774951034134517  0.12564976652106447  1.0000
  C   C33       1.0  0.8505000781777099  0.23077241177760746  0.8572849354486248  1.0000
  C   C34       1.0  0.7570600559856758  0.487160923320431  0.6759448746351067  1.0000
  C   C35       1.0  0.14510822931718798  0.5086716066266348  0.13450355511714213  1.0000
  C   C36       1.0  0.8711907742636384  0.51997262658697  0.8726047608290126  1.0000
  C   C37       1.0  0.3497863723064398  0.4804489601545184  0.3680425585510178  1.0000
  C   C38       1.0  0.6422869373415949  0.513776710850486  0.6526131662815968  1.0000
  C   C39       1.0  0.7547959330360285  0.45078000172313176  0.5874998436763191  1.0000
  C   C40       1.0  0.8069542946634696  0.41832395709053555  0.5533137627770583  1.0000
  C   C41       1.0  0.8650554596090744  0.42187847536211354  0.607073403094219  1.0000
  C   C42       1.0  0.8046560572430722  0.08703800670807028  0.7000197590449202  1.0000
  C   C43       1.0  0.13735641656289496  0.3261373347634802  0.10200199479098869  1.0000
  C   C44       1.0  0.10121613561605618  0.4119020772726856  0.6773183783804269  1.0000
  C   C45       1.0  0.8148966183850845  0.5219728335240958  0.8169246691236364  1.0000
  C   C46       1.0  0.30413042940451623  0.3660398503044533  0.7092640215317372  1.0000
  C   C47       1.0  0.8024236378296692  0.3794654287602057  0.4605149422874887  1.0000
  C   C48       1.0  0.709672031678224  0.6496718267228445  0.06521460510023044  1.0000
  C   C49       1.0  0.7593613924897795  0.5518781909650625  0.8513173222262507  1.0000
  C   C50       1.0  0.7014421736726817  0.5494240197817177  0.7969582436402189  1.0000
  C   C51       1.0  0.7019751676675128  0.5175261236641971  0.7107145730122679  1.0000
  C   C52       1.0  0.7588645763225018  0.5860315652711279  0.9387635007485782  1.0000
  Br  Br1       1.0  0.5691697360219977  0.6484212990669318  0.9592847658172158  1.0000
  Br  Br2       1.0  0.7046147989936034  0.10075793195511551  0.9089996952811956  1.0000
  Br  Br3       1.0  0.3717799765863106  0.4629235115670907  0.18797837496492056  1.0000
  Br  Br4       1.0  0.1838567065881095  0.4565503257194194  0.3531945590887061  1.0000
  Br  Br5       1.0  0.2751536610345796  0.907738379309947  0.04721913145603194  1.0000
  O   O1        1.0  0.5028671683846753  0.4993641262415024  0.5046260040367299  1.0000
  O   O2        1.0  0.9283876849793272  0.2657991230442605  0.8964652444237797  1.0000
  O   O3        1.0  0.13026920651702778  0.5759752556834385  0.17493785792230904  1.0000
  O   O4        1.0  0.67928806118708  0.7292161902943093  0.6041660923282917  1.0000
  O   O5        1.0  0.8294052661894187  0.4610795282517301  0.8957322432730376  1.0000
  O   O6        1.0  0.11401684010079556  0.4392817571428865  0.05161008052755991  1.0000
  O   O7        1.0  0.9548401093796174  0.5764207359248488  0.8913729080095006  1.0000
  O   O8        1.0  0.13964129067975514  0.7246999568340369  0.04333290776222746  1.0000
  O   O9        1.0  0.8175522230235474  0.2792815342525969  0.8689863598642159  1.0000
  O   O10       1.0  0.9547735371983211  0.5691067566597354  0.179056738725336  1.0000
  O   O11       1.0  0.09320594043024508  0.4090346320693429  0.8672419244361861  1.0000
  O   O12       1.0  0.38752135275480276  0.43515743836259446  0.6179030967475042  1.0000
  O   O13       1.0  0.39418227635099606  0.2661298630324254  0.4474985808062754  1.0000
  O   O14       1.0  0.3809606813094249  0.5520724902844876  0.6147600999925442  1.0000
  O   O15       1.0  0.5619246872044954  0.45579470639199127  0.3306656651488423  1.0000
  O   O16       1.0  0.38233794472945  0.5547072693762942  0.44907014649200494  1.0000
  O   O17       1.0  0.6799478375287223  0.5801460574663438  0.6367301728108996  1.0000
  O   O18       1.0  0.36955344015025565  0.41772340438924266  0.33010238457889324  1.0000
  O   O19       1.0  0.5596786138360058  0.44380294164765377  0.6239122527977228  1.0000
  O   O20       1.0  0.8650599858703174  0.14688768107060207  0.6894700712273687  1.0000
  O   O21       1.0  0.1417548511253131  0.2578156088768253  0.08879720219265858  1.0000
  O   O22       1.0  0.0401768769764531  0.4179742055311166  0.6650361527411304  1.0000
  O   O23       1.0  0.6795216346950852  0.5409515102002586  0.4506636564206728  1.0000
  O   O24       1.0  0.3379833496531219  0.37882010022374857  0.7745037162401968  1.0000
  O   O25       1.0  0.7548104289015072  0.37324038308469193  0.4089117420898701  1.0000
  O   O26       1.0  0.7567195422149311  0.6499134656500656  0.11168594201316041  1.0000
  O   O27       1.0  0.557450490568158  0.729449970409533  0.6232501038357012  1.0000
  O   O28       1.0  0.40726612874127005  0.2718583627937363  0.32821099093598594  1.0000
  O   O29       1.0  0.0016416447712117779  0.502332790001688  0.9981807195973641  1.0000
  O   O30       1.0  0.8276175567739088  0.4440183076794923  0.05876550017956104  1.0000
  O   O31       1.0  0.09282764714099309  0.5246159006456566  0.8559542572991173  1.0000
  O   O32       1.0  0.11846058576453805  0.7375311363030903  0.16898826573752498  1.0000
