data_image0
_chemical_formula_structural       Ag4H28C20N20O8
_chemical_formula_sum              "Ag4 H28 C20 N20 O8"
_cell_length_a       6.283984446711388
_cell_length_b       10.475449590359926
_cell_length_c       11.92636164230298
_cell_angle_alpha    89.99940399356556
_cell_angle_beta     89.99999620880308
_cell_angle_gamma    101.59261883265344

_space_group_name_H-M_alt    "P 1"
_space_group_IT_number       1

loop_
  _space_group_symop_operation_xyz
  'x, y, z'

loop_
  _atom_site_type_symbol
  _atom_site_label
  _atom_site_symmetry_multiplicity
  _atom_site_fract_x
  _atom_site_fract_y
  _atom_site_fract_z
  _atom_site_occupancy
  Ag  Ag1       1.0  0.9312872124089111  0.6131123565163181  0.6237907561919299  1.0000
  Ag  Ag2       1.0  0.06871160710953467  0.8868908778034738  0.12379325655987117  1.0000
  Ag  Ag3       1.0  0.06863419170090171  0.3868880704935691  0.376226448351808  1.0000
  Ag  Ag4       1.0  0.9313577875275101  0.1131187538835263  0.8762264591319917  1.0000
  H   H1        1.0  0.6311156208270959  0.40610295745557334  0.7281089835915464  1.0000
  H   H2        1.0  0.3688990786913209  0.0939010335947685  0.22812198082735333  1.0000
  H   H3        1.0  0.3689028553302691  0.5938697875701352  0.271892285741174  1.0000
  H   H4        1.0  0.6310915505338387  0.9061293825587813  0.7718952227033993  1.0000
  H   H5        1.0  0.6414737412291983  0.2543675415597164  0.7921784960397101  1.0000
  H   H6        1.0  0.3585387145291605  0.24563395219704623  0.29219381187216686  1.0000
  H   H7        1.0  0.35857468688829647  0.7456089948136511  0.20781774162760763  1.0000
  H   H8        1.0  0.641426975148917  0.7543887511931758  0.7078242306217104  1.0000
  H   H9        1.0  0.46498514634190263  0.3817709939365984  0.0230541378081597  1.0000
  H   H10       1.0  0.5350153892083397  0.11822526418045948  0.5230676786403166  1.0000
  H   H11       1.0  0.5350714684511715  0.6182523472071395  0.9769345551032839  1.0000
  H   H12       1.0  0.4649385974784011  0.8817496726350313  0.4769419775875716  1.0000
  H   H13       1.0  0.27469353436489996  0.2326174957388361  0.9954439439099614  1.0000
  H   H14       1.0  0.7253124783760398  0.2673793025976111  0.49545469271739495  1.0000
  H   H15       1.0  0.7253727703359728  0.7673970274666289  0.004548940750005699  1.0000
  H   H16       1.0  0.2746277233897915  0.7326064185227709  0.5045583182746327  1.0000
  H   H17       1.0  0.3540529013652716  0.7730870111106967  0.9053795489592529  1.0000
  H   H18       1.0  0.6459422300402125  0.7269095377912295  0.4053753802828267  1.0000
  H   H19       1.0  0.6459373604849149  0.2269238929817449  0.09461501490431347  1.0000
  H   H20       1.0  0.3540422249982313  0.2730799226708456  0.5946049287964212  1.0000
  H   H21       1.0  0.08023303435776816  0.7825840584200354  0.8734634321960681  1.0000
  H   H22       1.0  0.9197667572245436  0.717414689403043  0.37346566100126205  1.0000
  H   H23       1.0  0.9197551191138514  0.2174161207005199  0.12652777740435536  1.0000
  H   H24       1.0  0.08022640994838075  0.28258156762608894  0.6265347715557679  1.0000
  H   H25       1.0  0.2599046323138126  0.7648913838582561  0.7632734649488453  1.0000
  H   H26       1.0  0.7401030941083491  0.7351105502845384  0.2632724059842245  1.0000
  H   H27       1.0  0.7400896338933619  0.2351126752293453  0.23672026004579994  1.0000
  H   H28       1.0  0.25991525631020806  0.2648895162722553  0.7367154487495708  1.0000
  C   C1        1.0  0.8998321098183766  0.40525512714205564  0.8215799920428137  1.0000
  C   C2        1.0  0.1001816510418436  0.09474927579403673  0.32158476437781747  1.0000
  C   C3        1.0  0.10020271630078531  0.5947419499679825  0.17842295467477234  1.0000
  C   C4        1.0  0.8998057695627537  0.9052626139626696  0.6784232152719623  1.0000
  C   C5        1.0  0.19481346761940435  0.39851743917610344  0.9336871692510936  1.0000
  C   C6        1.0  0.8051800123665345  0.10148363155742861  0.4336993652356468  1.0000
  C   C7        1.0  0.8052267353891835  0.6014952300998075  0.06630403919887579  1.0000
  C   C8        1.0  0.1947699079794987  0.8985118105638747  0.5663136458271865  1.0000
  C   C9        1.0  0.14933767969753828  0.5921456472791178  0.8591838338704249  1.0000
  C   C10       1.0  0.8506571079061516  0.9078525960354046  0.3591866754521431  1.0000
  C   C11       1.0  0.8506702183881174  0.4078564093774873  0.14081156757643498  1.0000
  C   C12       1.0  0.14932902977541568  0.0921417357378687  0.6408145957297291  1.0000
  C   C13       1.0  0.21658228767361723  0.7367604574603491  0.8501451596140367  1.0000
  C   C14       1.0  0.7834187103190969  0.7632386669310877  0.3501443951836264  1.0000
  C   C15       1.0  0.7834119786140687  0.2632436015850105  0.1498494038592852  1.0000
  C   C16       1.0  0.2165798962100709  0.23675952170954423  0.6498468140118516  1.0000
  C   C17       1.0  0.4299080643248559  0.5339881418042013  0.5415771795618625  1.0000
  C   C18       1.0  0.5700931816999883  0.9660115986175131  0.041567747184501486  1.0000
  C   C19       1.0  0.5700220479741206  0.4660190838422268  0.45841906300429247  1.0000
  C   C20       1.0  0.4299714121684559  0.03397951408415171  0.9584133979226617  1.0000
  N   N1        1.0  0.973149660679212  0.5343728042867684  0.8007749952937215  1.0000
  N   N2        1.0  0.026849802565863008  0.9656312638389011  0.30077782522957347  1.0000
  N   N3        1.0  0.026853042795465937  0.46562341697362813  0.19922879087743434  1.0000
  N   N4        1.0  0.973137526577446  0.0343757477019153  0.6992284772771382  1.0000
  N   N5        1.0  0.007626009968497296  0.3333559885120607  0.8862720391062947  1.0000
  N   N6        1.0  0.9923782608399206  0.16664295480973831  0.38627752481009014  1.0000
  N   N7        1.0  0.9924184431890665  0.6666459314252365  0.11372839206034507  1.0000
  N   N8        1.0  0.007580950257441505  0.8333563557498778  0.6137312937173148  1.0000
  N   N9        1.0  0.2644470068189975  0.53013143997552  0.9260372766830397  1.0000
  N   N10       1.0  0.7355540183853435  0.9698639959000063  0.4260429128016907  1.0000
  N   N11       1.0  0.7355851580785567  0.46987638075099614  0.07395225487437067  1.0000
  N   N12       1.0  0.2644230731291302  0.030122563734707307  0.5739600353209794  1.0000
  N   N13       1.0  0.7122401008822264  0.348443553345632  0.7734499750289456  1.0000
  N   N14       1.0  0.28776683217844123  0.15155885877900493  0.27346162088043247  1.0000
  N   N15       1.0  0.28778298998100377  0.6515379558807837  0.22655380993380447  1.0000
  N   N16       1.0  0.7122009368032213  0.8484560308550831  0.7265597751609079  1.0000
  N   N17       1.0  0.3167601480827571  0.3323976392091694  0.9919802099248896  1.0000
  N   N18       1.0  0.6832518014947978  0.16759558055029092  0.4919900770034145  1.0000
  N   N19       1.0  0.6833023055450982  0.6676149470005371  0.008010997823681998  1.0000
  N   N20       1.0  0.3167123932626764  0.8323812696966897  0.5080179020207465  1.0000
  O   O1        1.0  0.5059263110660339  0.5676353921296595  0.6372716671384352  1.0000
  O   O2        1.0  0.4940669674093812  0.9323567576299041  0.1372652426892103  1.0000
  O   O3        1.0  0.49403747852728236  0.43240488339125704  0.3627078060747805  1.0000
  O   O4        1.0  0.5059491234895148  0.06759062908552242  0.8627016481120787  1.0000
  O   O5        1.0  0.24698773476432484  0.5510075704878121  0.5039425920757451  1.0000
  O   O6        1.0  0.753001087946572  0.9489901263033006  0.003932941904572798  1.0000
  O   O7        1.0  0.7528967202391144  0.44895494118522083  0.49607209672577557  1.0000
  O   O8        1.0  0.24709477181242073  0.051040873443845704  0.9960700042091017  1.0000
