data_image0
_chemical_formula_structural       Zn16H24C96S16N8O76
_chemical_formula_sum              "Zn16 H24 C96 S16 N8 O76"
_cell_length_a       19.630995950582218
_cell_length_b       19.661856582203228
_cell_length_c       33.283559855895106
_cell_angle_alpha    79.30727964745383
_cell_angle_beta     79.40056493383233
_cell_angle_gamma    64.07182326971908

_space_group_name_H-M_alt    "P 1"
_space_group_IT_number       1

loop_
  _space_group_symop_operation_xyz
  'x, y, z'

loop_
  _atom_site_type_symbol
  _atom_site_label
  _atom_site_symmetry_multiplicity
  _atom_site_fract_x
  _atom_site_fract_y
  _atom_site_fract_z
  _atom_site_occupancy
  Zn  Zn1       1.0  0.05853255833737591  0.40031383284505756  0.47827249828749524  1.0000
  Zn  Zn2       1.0  0.9824052479064064  0.48346807253167157  0.560354312058422  1.0000
  Zn  Zn3       1.0  0.06036031105872301  0.5598799011435246  0.4819502186955729  1.0000
  Zn  Zn4       1.0  0.8993652218632491  0.554491547356129  0.48039133411128165  1.0000
  Zn  Zn5       1.0  0.6942922313370731  0.35140896825416224  0.2697758865677357  1.0000
  Zn  Zn6       1.0  0.6909676999447711  0.18857429951047786  0.26772320434246655  1.0000
  Zn  Zn7       1.0  0.7673114331892066  0.26914735657668853  0.18966713223573342  1.0000
  Zn  Zn8       1.0  0.8474442196049948  0.19232967111560845  0.2730933539775222  1.0000
  Zn  Zn9       1.0  0.26601842580676294  0.7684448343187924  0.6897442179469663  1.0000
  Zn  Zn10      1.0  0.348999810623326  0.6936957286363779  0.7719236749169196  1.0000
  Zn  Zn11      1.0  0.19317987992842237  0.8492557079789125  0.7708370097279339  1.0000
  Zn  Zn12      1.0  0.19317517274256352  0.6858576344196055  0.7677750516012194  1.0000
  Zn  Zn13      1.0  0.5626102136011113  0.05836608926518491  0.9824597789189013  1.0000
  Zn  Zn14      1.0  0.39928950316354417  0.05604580465946902  0.9795854120370038  1.0000
  Zn  Zn15      1.0  0.5576041948609572  0.9024920885362208  0.977463061420671  1.0000
  Zn  Zn16      1.0  0.47995465463543513  0.9846698204132377  0.06033258450437272  1.0000
  H   H1        1.0  0.7482706200061247  0.4526838900164024  0.35066532472848866  1.0000
  H   H2        1.0  0.0014493277100485005  0.296630491101439  0.39995255037965893  1.0000
  H   H3        1.0  0.20145730353716834  0.7003589671915692  0.5985638198899536  1.0000
  H   H4        1.0  0.05020048852130541  0.5490353870846577  0.6509096514258984  1.0000
  H   H5        1.0  0.46474270545235186  0.23992141669835837  0.3407547774771657  1.0000
  H   H6        1.0  0.4786247858928476  0.7024292133890957  0.6012081982906493  1.0000
  H   H7        1.0  0.20272691295035367  0.9802426442853261  0.6009761194618901  1.0000
  H   H8        1.0  0.9484970327815817  0.9677201097297611  0.34903225302648605  1.0000
  H   H9        1.0  0.651154045187134  0.15194903846057167  0.04946139254811749  1.0000
  H   H10       1.0  0.5982389642321166  0.09870131927940667  0.20072579092392567  1.0000
  H   H11       1.0  0.5485865316827798  0.7730255976202399  0.14762305222740923  1.0000
  H   H12       1.0  0.1590908922526708  0.14263185933425865  0.04139592561725178  1.0000
  H   H13       1.0  0.2972187847401031  0.002213847868439699  0.8995510105993102  1.0000
  H   H14       1.0  0.4522619271317013  0.7496063387045383  0.8500707923774654  1.0000
  H   H15       1.0  0.3016661722235128  0.27907916799470195  0.9020617599240307  1.0000
  H   H16       1.0  0.7903011906133133  0.009064616330718242  0.9079969449910477  1.0000
  H   H17       1.0  0.325670566951672  0.5424660078296101  0.39934952395084605  1.0000
  H   H18       1.0  0.7552626779051224  0.5407334329740506  0.685111798630231  1.0000
  H   H19       1.0  0.0405419372776024  0.25774527395386576  0.6836030473614583  1.0000
  H   H20       1.0  0.7441814131203941  0.8102911399986044  0.38825790324064247  1.0000
  H   H21       1.0  0.7078572627753773  0.49431280107922493  0.06513665568181891  1.0000
  H   H22       1.0  0.14490865641760564  0.0793710511445269  0.222379461326362  1.0000
  H   H23       1.0  0.5083668407584555  0.43277549524271575  0.8627781594452697  1.0000
  H   H24       1.0  0.9266220402002504  0.706448923584773  0.8493475749704086  1.0000
  C   C1        1.0  0.06240767565785179  0.31681377532589045  0.5615982188153337  1.0000
  C   C2        1.0  0.07011418071221699  0.5678167139036249  0.5686842592408963  1.0000
  C   C3        1.0  0.18478311517816343  0.4393513972252662  0.4374424508402937  1.0000
  C   C4        1.0  0.9365619361293869  0.6823655703661086  0.4398012871711072  1.0000
  C   C5        1.0  0.9314093768054618  0.42860493645067527  0.43248205867785555  1.0000
  C   C6        1.0  0.8155999848411143  0.5613176066465825  0.5631276881447176  1.0000
  C   C7        1.0  0.566978072758218  0.31152814285358227  0.31089781053482557  1.0000
  C   C8        1.0  0.6795520577864523  0.18205164326030862  0.18177057290404958  1.0000
  C   C9        1.0  0.6897041214421052  0.4361536301303772  0.18717811579495688  1.0000
  C   C10       1.0  0.932865933391007  0.1878251442573244  0.19042917753954913  1.0000
  C   C11       1.0  0.8167063939727867  0.31910463299236386  0.3197520594334974  1.0000
  C   C12       1.0  0.8113629861065733  0.06323704012749688  0.31191888290821607  1.0000
  C   C13       1.0  0.4325800356162404  0.6900481584609183  0.6883530299680769  1.0000
  C   C14       1.0  0.31985801374142403  0.8196747566965357  0.8179835171652241  1.0000
  C   C15       1.0  0.187452169976531  0.9347840746733528  0.6879440852980918  1.0000
  C   C16       1.0  0.0682527609167138  0.8085381252935449  0.810836445989075  1.0000
  C   C17       1.0  0.1838014988662593  0.6792714627212534  0.6808176112412665  1.0000
  C   C18       1.0  0.31482690913897937  0.5643484967122491  0.8123190440094132  1.0000
  C   C19       1.0  0.43897559474481074  0.1826238025195366  0.9388999073461544  1.0000
  C   C20       1.0  0.43081834548986825  0.9331727348631915  0.9305045592263493  1.0000
  C   C21       1.0  0.6871162651015084  0.9382777818217608  0.938210254082875  1.0000
  C   C22       1.0  0.5603271965624189  0.8183604666229984  0.060564453621118695  1.0000
  C   C23       1.0  0.5676771116242492  0.07080232853848403  0.06843845603822975  1.0000
  C   C24       1.0  0.3128376513990645  0.06209618316687943  0.061775855376204364  1.0000
  C   C25       1.0  0.9020647523769938  0.40266252788572415  0.4023006218783252  1.0000
  C   C26       1.0  0.8485007608500722  0.34742854089040526  0.34744019551931865  1.0000
  C   C27       1.0  0.8311789518326266  0.44590951311555926  0.38746078493711866  1.0000
  C   C28       1.0  0.9202030850679108  0.30496434872971884  0.36148728459726687  1.0000
  C   C29       1.0  0.8041424921509517  0.4187268699809224  0.36115003713209126  1.0000
  C   C30       1.0  0.9462010492873106  0.33111715477505727  0.38882661372816324  1.0000
  C   C31       1.0  0.0979532836312913  0.5990443575388582  0.596955896746614  1.0000
  C   C32       1.0  0.1518925363181083  0.6522261659638319  0.6525931665326964  1.0000
  C   C33       1.0  0.13999180023851207  0.6426892926213698  0.5830175076156292  1.0000
  C   C34       1.0  0.10829668176793922  0.6100883699703984  0.666534298383979  1.0000
  C   C35       1.0  0.16761567335329636  0.6678221680169187  0.6100493291936429  1.0000
  C   C36       1.0  0.08283428188983073  0.5828205184473702  0.6395023264355968  1.0000
  C   C37       1.0  0.30491062236855265  0.45552482101792446  0.4003939051317855  1.0000
  C   C38       1.0  0.4476263193402231  0.29682813754035214  0.3487116434407439  1.0000
  C   C39       1.0  0.25951357802660624  0.41524795571716316  0.413103256064474  1.0000
  C   C40       1.0  0.4924700712685564  0.3367633836173738  0.336013765935128  1.0000
  C   C41       1.0  0.3795809519895243  0.33962090905204423  0.37240717343464513  1.0000
  C   C42       1.0  0.37381906359817657  0.41171942754071716  0.3771211923502661  1.0000
  C   C43       1.0  0.7253786958965379  0.5760839107199873  0.6308569467945018  1.0000
  C   C44       1.0  0.5232878156784794  0.6738566964746866  0.6214277223495228  1.0000
  C   C45       1.0  0.7415008603592168  0.5859374012641184  0.5880822727464403  1.0000
  C   C46       1.0  0.5075084755169074  0.6645870621853688  0.6638220322650524  1.0000
  C   C47       1.0  0.6026228433284687  0.6421364796917713  0.609248263591361  1.0000
  C   C48       1.0  0.6456118068892708  0.6087315894208628  0.6428363991966677  1.0000
  C   C49       1.0  0.07619520140733022  0.22721048113103132  0.6295343274636025  1.0000
  C   C50       1.0  0.1733482351940907  0.02506898534738872  0.6209556204510205  1.0000
  C   C51       1.0  0.08618917832885128  0.24288104439440167  0.5867047611345199  1.0000
  C   C52       1.0  0.16274996626318483  0.009707404942453514  0.6633395817467826  1.0000
  C   C53       1.0  0.14136526223556706  0.10421454058972297  0.6084726438538793  1.0000
  C   C54       1.0  0.10761454128850542  0.1475445719400312  0.6418163130758925  1.0000
  C   C55       1.0  0.8422783924049427  0.7980222432668853  0.3980875518447674  1.0000
  C   C56       1.0  0.9039718891472076  0.9473231466639116  0.35342757628094273  1.0000
  C   C57       1.0  0.9110362887379395  0.7566754812166466  0.41507914492498793  1.0000
  C   C58       1.0  0.8356123190547536  0.9885894920556809  0.3368883501078627  1.0000
  C   C59       1.0  0.9064348798589563  0.8781485800665654  0.37599967597251527  1.0000
  C   C60       1.0  0.839830850652497  0.8678615162712757  0.37586935175536945  1.0000
  C   C61       1.0  0.6534709881523922  0.1518090143631953  0.15207591015448677  1.0000
  C   C62       1.0  0.5979786537161119  0.09669223805393305  0.09808844131391935  1.0000
  C   C63       1.0  0.6683486535959561  0.16515192398352954  0.10920025886358782  1.0000
  C   C64       1.0  0.5846269664578473  0.08181327098661474  0.14097774775245134  1.0000
  C   C65       1.0  0.6402802819274883  0.1394884290225349  0.08264680742388454  1.0000
  C   C66       1.0  0.6104734000591989  0.10968197864029611  0.16752455350444956  1.0000
  C   C67       1.0  0.6739671652179595  0.5257653649281551  0.11915189312480119  1.0000
  C   C68       1.0  0.5764128533188924  0.7281015314788133  0.12762496602967127  1.0000
  C   C69       1.0  0.6646622833934401  0.510107401664513  0.16203356244673728  1.0000
  C   C70       1.0  0.5852817714940031  0.7433968681470732  0.08515936971816263  1.0000
  C   C71       1.0  0.6079540986267062  0.6489047616434435  0.1400929543901909  1.0000
  C   C72       1.0  0.6409319013973446  0.6054451546625046  0.10676205474336331  1.0000
  C   C73       1.0  0.07961928092314713  0.12424290054458001  0.17952758185845846  1.0000
  C   C74       1.0  0.167142836598309  0.125699666268666  0.07381189978585918  1.0000
  C   C75       1.0  0.0074299830056788006  0.162621707991093  0.16596820456031475  1.0000
  C   C76       1.0  0.23865564246050755  0.08685856245005402  0.08713887724678666  1.0000
  C   C77       1.0  0.10907584732872522  0.1389615921390259  0.10730437382485288  1.0000
  C   C78       1.0  0.1377631131584351  0.11042530627247517  0.14566796050642944  1.0000
  C   C79       1.0  0.34620834393069805  0.8490252695864057  0.8479431959892878  1.0000
  C   C80       1.0  0.40227619914788454  0.9017698276529276  0.9027430709322172  1.0000
  C   C81       1.0  0.30318985844696306  0.9197131161041979  0.8628253084520306  1.0000
  C   C82       1.0  0.4445009896182627  0.8302124869568817  0.8886750287780669  1.0000
  C   C83       1.0  0.33083958592723656  0.9464295292797616  0.8890628548746943  1.0000
  C   C84       1.0  0.41799757419011035  0.8046739816663617  0.8613005447125843  1.0000
  C   C85       1.0  0.4093581158333421  0.44754305975598646  0.8533624435530667  1.0000
  C   C86       1.0  0.3463869468254401  0.2991759594951374  0.8977337032817156  1.0000
  C   C87       1.0  0.34008569252048904  0.4900979498176171  0.8370628137547553  1.0000
  C   C88       1.0  0.4148539301655916  0.2573052672266982  0.9140516676177693  1.0000
  C   C89       1.0  0.3439157840035207  0.3687355529185581  0.875781347790223  1.0000
  C   C90       1.0  0.4111160461285052  0.3780765705286128  0.8756682070411016  1.0000
  C   C91       1.0  0.9478858270932307  0.7931718523587111  0.8481098327787534  1.0000
  C   C92       1.0  0.8069733495441938  0.9520875558098753  0.9002843806937759  1.0000
  C   C93       1.0  0.9940851064679423  0.8326465566550995  0.8356412811651875  1.0000
  C   C94       1.0  0.76161022008165  0.9126876811535214  0.9131250608417998  1.0000
  C   C95       1.0  0.8750621027393423  0.9085971690155792  0.8768499134853367  1.0000
  C   C96       1.0  0.8797836214534202  0.8369413762921027  0.8719618090578718  1.0000
  S   S1        1.0  0.30111156968733616  0.3248306604140792  0.3968573381621708  1.0000
  S   S2        1.0  0.45239613429560427  0.4265692682871176  0.35267588204897027  1.0000
  S   S3        1.0  0.659808048765676  0.6344510547296521  0.562922143432395  1.0000
  S   S4        1.0  0.5886584210402787  0.6170970720924699  0.6893208946040089  1.0000
  S   S5        1.0  0.1336243181282271  0.16089819058290533  0.5619351552573021  1.0000
  S   S6        1.0  0.11419860577463942  0.09099649284216584  0.6884398613462392  1.0000
  S   S7        1.0  0.9716665020075014  0.8030165895857236  0.4040039129754616  1.0000
  S   S8        1.0  0.773820564140493  0.9437189411600497  0.34854703482422156  1.0000
  S   S9        1.0  0.616115051465073  0.5922542618739468  0.18668666478114912  1.0000
  S   S10       1.0  0.6319834507541915  0.6619454366913899  0.06004759845858124  1.0000
  S   S11       1.0  0.0109132722112335  0.1814445232950206  0.1124703677921062  1.0000
  S   S12       1.0  0.2359993375025908  0.0662927394061725  0.14046795900402023  1.0000
  S   S13       1.0  0.27804549856993094  0.4453494192667548  0.8489441064868897  1.0000
  S   S14       1.0  0.4769199706821752  0.30178863406759865  0.9028403627596688  1.0000
  S   S15       1.0  0.9545045555038812  0.9220996291296901  0.8529537091986152  1.0000
  S   S16       1.0  0.8010733347855706  0.8226859748965933  0.8967211511080887  1.0000
  N   N1        1.0  0.7817124005202275  0.5243850372989628  0.3974666531861927  1.0000
  N   N2        1.0  0.9739802555286801  0.23103405634454802  0.34692458935793263  1.0000
  N   N3        1.0  0.15537665168624673  0.6673222109477595  0.5387776713665315  1.0000
  N   N4        1.0  0.08381675591553521  0.5947173312224552  0.7107910360726348  1.0000
  N   N5        1.0  0.7169276157235702  0.2051139771238155  0.08930708574817454  1.0000
  N   N6        1.0  0.5447536856807601  0.03310540235882802  0.16066197501622526  1.0000
  N   N7        1.0  0.22466222824796486  0.9694197860162604  0.8527818977110253  1.0000
  N   N8        1.0  0.5185573435663144  0.7760544253807851  0.9031778259606539  1.0000
  O   O1        1.0  0.0005217146901160004  0.49893014863105367  0.5000358135371882  1.0000
  O   O2        1.0  0.07394238781673579  0.3154680674067194  0.5224012601468714  1.0000
  O   O3        1.0  0.022543858607342298  0.5402632150260658  0.5855065277094764  1.0000
  O   O4        1.0  0.15284106554296534  0.5078728570480919  0.4460071282939424  1.0000
  O   O5        1.0  0.03275667806739341  0.37578901242844864  0.580603050775373  1.0000
  O   O6        1.0  0.15769132410385822  0.38887209373474013  0.4479388627894492  1.0000
  O   O7        1.0  0.0973124494377728  0.571061856053241  0.5310794071121165  1.0000
  O   O8        1.0  0.9999586454559906  0.6598937649757842  0.45469589007367234  1.0000
  O   O9        1.0  0.8832621239130064  0.48569028469333386  0.4501507764757162  1.0000
  O   O10       1.0  0.89458290348923  0.6462637496879963  0.444364514627523  1.0000
  O   O11       1.0  0.0012825959795677005  0.3901313098563576  0.4377713922170087  1.0000
  O   O12       1.0  0.8745960774942034  0.5218635229108842  0.5818001145089083  1.0000
  O   O13       1.0  0.8143611693243499  0.5818212359115265  0.5242313859241319  1.0000
  O   O14       1.0  0.7492848730173378  0.2505042814556689  0.2501998809113174  1.0000
  O   O15       1.0  0.599649334961164  0.3570947222747022  0.30429043531309913  1.0000
  O   O16       1.0  0.6719851815172787  0.1558577098719808  0.21946079760847678  1.0000
  O   O17       1.0  0.7304016507977024  0.37716171768655493  0.1688124936374605  1.0000
  O   O18       1.0  0.5921675688819833  0.24655728200394839  0.29796842221757897  1.0000
  O   O19       1.0  0.6684302219344929  0.4371498477926395  0.22610079281169948  1.0000
  O   O20       1.0  0.7054727969585528  0.23132333102133643  0.16651641624383015  1.0000
  O   O21       1.0  0.8749402839843582  0.21662485594172412  0.16999069970834305  1.0000
  O   O22       1.0  0.8508518312733245  0.24860864885042872  0.31564063628745487  1.0000
  O   O23       1.0  0.9314482714263194  0.17952343515697305  0.22951292754532193  1.0000
  O   O24       1.0  0.7578182081324699  0.368244975698275  0.30356307686680833  1.0000
  O   O25       1.0  0.7431187714402442  0.09298807557651403  0.30218366336127633  1.0000
  O   O26       1.0  0.8600738045930568  0.09196455810857884  0.3020842909785201  1.0000
  O   O27       1.0  0.2504630986847616  0.7496804359488253  0.7499588268750939  1.0000
  O   O28       1.0  0.374266051183703  0.7205667747425936  0.6686003876234705  1.0000
  O   O29       1.0  0.3596257113922761  0.7503398341767352  0.8121293834228636  1.0000
  O   O30       1.0  0.16659736606029443  0.9343694998632087  0.7267338825436693  1.0000
  O   O31       1.0  0.43289538324835064  0.6791663542701728  0.7274996530297314  1.0000
  O   O32       1.0  0.2274078776103607  0.8769038640754447  0.6685415680126636  1.0000
  O   O33       1.0  0.26129047786844944  0.8669139213162466  0.8010974601681439  1.0000
  O   O34       1.0  0.10135310161121681  0.8537775404869307  0.8064828120453381  1.0000
  O   O35       1.0  0.18260225478745437  0.6503722173282396  0.7182291034431215  1.0000
  O   O36       1.0  0.09361728038575022  0.7457492567333475  0.7956237304275644  1.0000
  O   O37       1.0  0.21012493528447607  0.7280234652972837  0.6643008843914018  1.0000
  O   O38       1.0  0.36264059616802063  0.5941843934308793  0.8015994797250341  1.0000
  O   O39       1.0  0.2460273462220002  0.5930467053238216  0.8034377632399552  1.0000
  O   O40       1.0  0.4996921066493343  0.0007304876519639613  0.9998564614783799  1.0000
  O   O41       1.0  0.5040036949828989  0.15683640234086477  0.9522452524335491  1.0000
  O   O42       1.0  0.3818551219995782  0.992296707789315  0.9464302558873282  1.0000
  O   O43       1.0  0.6579511553574803  0.8897308285343187  0.9485773978618608  1.0000
  O   O44       1.0  0.393237512071515  0.15038279695627216  0.9449126561530147  1.0000
  O   O45       1.0  0.6578185738301984  0.006374588693624637  0.9475714042270195  1.0000
  O   O46       1.0  0.5012634476764647  0.8985230021660229  0.934993744566604  1.0000
  O   O47       1.0  0.5708832380147442  0.8183965508674264  0.021385669288576974  1.0000
  O   O48       1.0  0.5169607985643125  0.04650855746215404  0.08346113007898735  1.0000
  O   O49       1.0  0.5305763307705151  0.8765089877857836  0.08032173202045093  1.0000
  O   O50       1.0  0.5950501496162631  0.07670328395397516  0.03084722410837058  1.0000
  O   O51       1.0  0.31273707093559716  0.08258484279605942  0.022979282747769482  1.0000
  O   O52       1.0  0.37147159161078497  0.021850806407151337  0.08088553842636508  1.0000
  O   O53       1.0  0.80268918486523  0.5744877556978524  0.3804536898595854  1.0000
  O   O54       1.0  0.7216250107635815  0.5335853330370522  0.4200177238945597  1.0000
  O   O55       1.0  0.0050182743669041005  0.23338576129140154  0.311218589868396  1.0000
  O   O56       1.0  0.9862755990403828  0.1738332860061148  0.37238770419436645  1.0000
  O   O57       1.0  0.101007739599055  0.7182446833968756  0.5222217184865485  1.0000
  O   O58       1.0  0.2221226248544426  0.6379004725149927  0.5229499302029906  1.0000
  O   O59       1.0  0.0339034620259682  0.6493420827345561  0.7275072687511253  1.0000
  O   O60       1.0  0.112344287142065  0.5278950881486894  0.7266197085632197  1.0000
  O   O61       1.0  0.7861332709711704  0.16927570179955614  0.09103759434039198  1.0000
  O   O62       1.0  0.6844541186983194  0.2690531825807552  0.07071963163995316  1.0000
  O   O63       1.0  0.580113752338015  0.9641713272700018  0.15810925948635904  1.0000
  O   O64       1.0  0.48118759099325803  0.06502191922248116  0.17971296744980236  1.0000
  O   O65       1.0  0.17425046626974713  0.9490609208950499  0.870069629546975  1.0000
  O   O66       1.0  0.21583976643001532  0.028987450145031284  0.8298053392308657  1.0000
  O   O67       1.0  0.5164192755985654  0.7453221352514775  0.9389912765646354  1.0000
  O   O68       1.0  0.5756119493088577  0.7631373808749943  0.877576587940737  1.0000
  O   O69       1.0  0.28438420886947574  0.5266424580042042  0.4096606945798626  1.0000
  O   O70       1.0  0.7797925593040915  0.5401543013635861  0.6568423783610269  1.0000
  O   O71       1.0  0.04063704449770001  0.2818765877327039  0.655241604618773  1.0000
  O   O72       1.0  0.7864204505670145  0.7733216182248694  0.4030739889263727  1.0000
  O   O73       1.0  0.709793595073002  0.47091239256106127  0.09365471412666435  1.0000
  O   O74       1.0  0.09048545007907191  0.10330625709863739  0.2197641029349028  1.0000
  O   O75       1.0  0.4662963473591547  0.47094848952352925  0.8482327341636304  1.0000
  O   O76       1.0  0.9675637359347322  0.7225266951875539  0.8384633926594276  1.0000
