data_image0
_chemical_formula_structural       Zn2H36C46N12Cl4O8
_chemical_formula_sum              "Zn2 H36 C46 N12 Cl4 O8"
_cell_length_a       9.920693634646389
_cell_length_b       10.901408338143284
_cell_length_c       15.251162180615557
_cell_angle_alpha    69.82053860795679
_cell_angle_beta     81.2658374639867
_cell_angle_gamma    72.71572279858886

_space_group_name_H-M_alt    "P 1"
_space_group_IT_number       1

loop_
  _space_group_symop_operation_xyz
  'x, y, z'

loop_
  _atom_site_type_symbol
  _atom_site_label
  _atom_site_symmetry_multiplicity
  _atom_site_fract_x
  _atom_site_fract_y
  _atom_site_fract_z
  _atom_site_occupancy
  Zn  Zn1       1.0  0.6310660863696569  0.31326897097106615  0.39244650443041723  1.0000
  Zn  Zn2       1.0  0.3689375453823941  0.6867306986380014  0.6075543749198078  1.0000
  H   H1        1.0  0.6831638681515602  0.507609657496758  0.4934690826601269  1.0000
  H   H2        1.0  0.31684072726515217  0.4923940448112134  0.5065280824892825  1.0000
  H   H3        1.0  0.7475494432833969  0.5227973792364153  0.21048524036703503  1.0000
  H   H4        1.0  0.25245556398482444  0.4772012458612951  0.7895124954292002  1.0000
  H   H5        1.0  0.8188772730047873  0.742351586036641  0.2292103096758638  1.0000
  H   H6        1.0  0.1811259401771537  0.2576500385840746  0.7707835634649031  1.0000
  H   H7        1.0  0.6973308698908697  0.7412999400846729  0.4775870802836836  1.0000
  H   H8        1.0  0.30266785724549555  0.2587067445610387  0.5224065960278566  1.0000
  H   H9        1.0  0.7502146201804438  0.8455148042287917  0.368475204970622  1.0000
  H   H10       1.0  0.2497890157607897  0.15448886526211683  0.6315194323514677  1.0000
  H   H11       1.0  0.004273420154440521  0.7049374904164197  0.3912669201139636  1.0000
  H   H12       1.0  0.9957273841945522  0.295065181549532  0.6087308453556233  1.0000
  H   H13       1.0  0.9501642586927518  0.5970018446645966  0.4984365223375421  1.0000
  H   H14       1.0  0.04983308201965998  0.4029987624120183  0.5015601039934907  1.0000
  H   H15       1.0  0.873460519424846  0.783108403138769  0.5669486972524852  1.0000
  H   H16       1.0  0.12653735800375193  0.21689019188470837  0.433049692724552  1.0000
  H   H17       1.0  0.05390657854013618  0.7609256073993508  0.5231664041765713  1.0000
  H   H18       1.0  0.9460922435956788  0.23907302757137935  0.47683516894823447  1.0000
  H   H19       1.0  0.7165908486081493  0.009888064254447203  0.5188978579759296  1.0000
  H   H20       1.0  0.28340745157973407  0.9901125756392373  0.4811012961824376  1.0000
  H   H21       1.0  0.9166021731187969  0.20423736876671944  0.26621085453274423  1.0000
  H   H22       1.0  0.08340233754883294  0.7957592471117252  0.73378939368434  1.0000
  H   H23       1.0  0.07771533848899992  0.9349690967194848  0.3386061853149017  1.0000
  H   H24       1.0  0.9222870760085586  0.06502753908706892  0.6613968710927126  1.0000
  H   H25       1.0  0.00798789626816195  0.5194416078753931  0.15855477678955052  1.0000
  H   H26       1.0  0.9920133009749038  0.48055199412863925  0.8414504566754392  1.0000
  H   H27       1.0  0.33528772066085105  0.3971344314211933  0.9620609337575561  1.0000
  H   H28       1.0  0.664711946993549  0.6028682932899301  0.0379421677298879  1.0000
  H   H29       1.0  0.5174532646457166  0.354540041031612  0.07495663942176381  1.0000
  H   H30       1.0  0.4825473519050902  0.6454667235085978  0.9250434031852992  1.0000
  H   H31       1.0  0.49987314455702847  0.9241724173339424  0.8621020042495645  1.0000
  H   H32       1.0  0.5001262881362719  0.07582416993273  0.13789805591908794  1.0000
  H   H33       1.0  0.5724395651697024  0.2817936144665509  0.8855507205766814  1.0000
  H   H34       1.0  0.42755573425648663  0.7182029841355869  0.11445233469130053  1.0000
  H   H35       1.0  0.630984284209262  0.35966450502388625  0.7128629950888482  1.0000
  H   H36       1.0  0.369009599585162  0.6403371593620194  0.28713892766627674  1.0000
  C   C1        1.0  0.7092388426367789  0.5402578969174457  0.41897191644361703  1.0000
  C   C2        1.0  0.29076677132844964  0.4597458096868507  0.5810251552513961  1.0000
  C   C3        1.0  0.7465911916409738  0.5523181546139637  0.27157689031126614  1.0000
  C   C4        1.0  0.2534109586876668  0.44768348710099565  0.728419042245193  1.0000
  C   C5        1.0  0.7806189981834349  0.6607297697389214  0.28009914429426896  1.0000
  C   C6        1.0  0.2193844685883377  0.33927085598541146  0.7198962659899311  1.0000
  C   C7        1.0  0.7761740083824551  0.7426436446121017  0.41857402915385217  1.0000
  C   C8        1.0  0.2238272925671296  0.25736103657311565  0.5814212238948926  1.0000
  C   C9        1.0  0.9260948707709389  0.7016720470130621  0.45083790371185734  1.0000
  C   C10       1.0  0.07390492979779853  0.2983306135263817  0.5491592998916986  1.0000
  C   C11       1.0  0.944267345037247  0.791094157907331  0.5036354707189972  1.0000
  C   C12       1.0  0.05572990706561138  0.20890649195040112  0.4963650875346277  1.0000
  C   C13       1.0  0.7918195353752182  0.0283281917494591  0.45943205907560286  1.0000
  C   C14       1.0  0.20818180568996777  0.9716724681633623  0.5405674700399886  1.0000
  C   C15       1.0  0.8994744964656646  0.1241103461082957  0.32930978045718023  1.0000
  C   C16       1.0  0.10052869775883977  0.8758872857607687  0.6706909900321634  1.0000
  C   C17       1.0  0.9792866847557063  0.9923696523578515  0.3633569945122161  1.0000
  C   C18       1.0  0.020715237330442397  0.0076289741112703004  0.6366423322880908  1.0000
  C   C19       1.0  0.3668668401349109  0.40896896197870797  0.18003882602396  1.0000
  C   C20       1.0  0.6331338756045284  0.591033752768361  0.8199628713682259  1.0000
  C   C21       1.0  0.22139546645585273  0.4570699856398123  0.20238524101722533  1.0000
  C   C22       1.0  0.7786050653458644  0.5429296924708638  0.7976178846575056  1.0000
  C   C23       1.0  0.11956427974565292  0.4814846905058233  0.140876577648811  1.0000
  C   C24       1.0  0.8804359137171501  0.5185089000717014  0.8591280939501474  1.0000
  C   C25       1.0  0.1606882307806359  0.4581829798471873  0.054437856399744085  1.0000
  C   C26       1.0  0.8393111133031111  0.541813650200595  0.9455661356915005  1.0000
  C   C27       1.0  0.30458020796884705  0.41203521830325945  0.030101911634027086  1.0000
  C   C28       1.0  0.6954190369262604  0.5879654615376709  0.9699004256721013  1.0000
  C   C29       1.0  0.40487592631673414  0.38867470748722616  0.0924737051432061  1.0000
  C   C30       1.0  0.5951243371268903  0.6113259766500149  0.907528538708519  1.0000
  C   C31       1.0  0.4854261083836278  0.3783748177323575  0.241792589331375  1.0000
  C   C32       1.0  0.5145719783300251  0.6216227997852998  0.7582093037503981  1.0000
  C   C33       1.0  0.5924832290728902  0.19001598645773043  0.6895696404700831  1.0000
  C   C34       1.0  0.40751269181857447  0.809985686520811  0.3104320953762425  1.0000
  C   C35       1.0  0.5534964540876927  0.0676361553521758  0.7326965984371371  1.0000
  C   C36       1.0  0.4465003457193432  0.9323624638957356  0.26730450627603375  1.0000
  C   C37       1.0  0.5255968129781223  0.020824212659668703  0.8286661972936644  1.0000
  C   C38       1.0  0.4744023218205698  0.979173394893941  0.171334291692844  1.0000
  C   C39       1.0  0.5333237442425586  0.09853536744195421  0.8836769280753531  1.0000
  C   C40       1.0  0.4666733534590933  0.9014622315190198  0.11632374781996183  1.0000
  C   C41       1.0  0.5681320245476513  0.2224883606502601  0.8417656281601043  1.0000
  C   C42       1.0  0.4318647604911306  0.7775102657278339  0.15823613187349392  1.0000
  C   C43       1.0  0.5993258199978087  0.2657866244536039  0.7460327981741062  1.0000
  C   C44       1.0  0.4006706671463577  0.7342130222114349  0.2539693906773621  1.0000
  C   C45       1.0  0.6369535982849472  0.24168697963631303  0.5877799503554826  1.0000
  C   C46       1.0  0.3630426205011262  0.7583136730552907  0.4122213566729799  1.0000
  N   N1        1.0  0.7556184232329385  0.6516907587363435  0.37356793424273593  1.0000
  N   N2        1.0  0.2443839110334238  0.34831391961500213  0.6264265700311783  1.0000
  N   N3        1.0  0.7024484380633922  0.47772514843477154  0.3590594957436011  1.0000
  N   N4        1.0  0.29755902906115483  0.5222755301257678  0.6409388173251572  1.0000
  N   N5        1.0  0.9092582168687501  0.9337806040846675  0.4458911102565679  1.0000
  N   N6        1.0  0.09074110186765692  0.0662200401053283  0.5541079504473957  1.0000
  N   N7        1.0  0.7831016942366346  0.1450375508761823  0.39014947186736043  1.0000
  N   N8        1.0  0.21690096327168362  0.8549620930460194  0.6098495349759716  1.0000
  N   N9        1.0  0.06462187611916903  0.48014602074120905  0.9876523258400031  1.0000
  N   N10       1.0  0.9353777363226711  0.519849603280008  0.012352548074247193  1.0000
  N   N11       1.0  0.5097271011345371  0.0586928842678063  0.9816796259182257  1.0000
  N   N12       1.0  0.49027027969346915  0.9413037015364124  0.0183212764796535  1.0000
  Cl  Cl1       1.0  0.1600631686649834  0.49548115386333796  0.3055516396659784  1.0000
  Cl  Cl2       1.0  0.8399382529601029  0.5045225925971765  0.6944510484100948  1.0000
  Cl  Cl3       1.0  0.5457815300432713  0.964727123787789  0.6688964022964967  1.0000
  Cl  Cl4       1.0  0.45421805705122864  0.03527251437563451  0.3311035402304654  1.0000
  O   O1        1.0  0.4556098714417942  0.3444543505412696  0.3313107493503367  1.0000
  O   O2        1.0  0.5443919620348011  0.6555443187089764  0.6686925093725692  1.0000
  O   O3        1.0  0.6057474394958932  0.38494655611104633  0.20458958129827917  1.0000
  O   O4        1.0  0.39425508895855893  0.6150460227721839  0.7954144745740238  1.0000
  O   O5        1.0  0.5532193788856007  0.2534418231032944  0.5266707918209477  1.0000
  O   O6        1.0  0.446781355482571  0.7465537553029408  0.4733294013958728  1.0000
  O   O7        1.0  0.7526340806602719  0.2720304087819798  0.5695576505137867  1.0000
  O   O8        1.0  0.24735862632395833  0.7279753296214935  0.43044533219234904  1.0000
