data_image0
_chemical_formula_structural       Zn8H12C36N12O26
_chemical_formula_sum              "Zn8 H12 C36 N12 O26"
_cell_length_a       17.979627753596567
_cell_length_b       18.195520833895124
_cell_length_c       18.229247155613386
_cell_angle_alpha    60.93822633522074
_cell_angle_beta     60.614469381115
_cell_angle_gamma    60.490729616407705

_space_group_name_H-M_alt    "P 1"
_space_group_IT_number       1

loop_
  _space_group_symop_operation_xyz
  'x, y, z'

loop_
  _atom_site_type_symbol
  _atom_site_label
  _atom_site_symmetry_multiplicity
  _atom_site_fract_x
  _atom_site_fract_y
  _atom_site_fract_z
  _atom_site_occupancy
  Zn  Zn1       1.0  0.962735350428048  0.9399585376553502  0.1474321193765889  1.0000
  Zn  Zn2       1.0  0.14235997936768302  0.9361804033535818  0.9732224406232962  1.0000
  Zn  Zn3       1.0  0.9640411562087722  0.1126042655899866  0.9756569060210868  1.0000
  Zn  Zn4       1.0  0.9643673167877794  0.9363825104308957  0.9716738014356069  1.0000
  Zn  Zn5       1.0  0.5512740029573776  0.5249746042491097  0.38630583989454703  1.0000
  Zn  Zn6       1.0  0.374860724580941  0.5239651674808029  0.5607157465650162  1.0000
  Zn  Zn7       1.0  0.5556067617090434  0.5261374390091048  0.5597006172341568  1.0000
  Zn  Zn8       1.0  0.5532754695585567  0.3503966537804217  0.5601385447279413  1.0000
  H   H1        1.0  0.29022187649823655  0.5689854143134097  0.3152356235163794  1.0000
  H   H2        1.0  0.2198029583712682  0.8890221953122152  0.22363119887705105  1.0000
  H   H3        1.0  0.8275634906209676  0.27380859672635427  0.3147108611023201  1.0000
  H   H4        1.0  0.6773315001316363  0.18931062529126316  0.22168894998984007  1.0000
  H   H5        1.0  0.5978218928300052  0.8021304855598004  0.3145417572668452  1.0000
  H   H6        1.0  0.9243680596883833  0.6567079854258326  0.21560277446526055  1.0000
  H   H7        1.0  0.3033763307711154  0.26729659236755776  0.6099410373036138  1.0000
  H   H8        1.0  0.21556896245031254  0.19252267794827557  0.929389250919613  1.0000
  H   H9        1.0  0.29516158910609397  0.5728204980130726  0.8367737193145931  1.0000
  H   H10       1.0  0.22450462919420036  0.8933031789884681  0.6903683778078646  1.0000
  H   H11       1.0  0.5992185435903962  0.2749102780935572  0.8343966992187577  1.0000
  H   H12       1.0  0.9262633789400566  0.1893696393683086  0.6929199541859675  1.0000
  C   C1        1.0  0.1479963120222507  0.8411642961898095  0.1563275647360315  1.0000
  C   C2        1.0  0.2054312980810664  0.7811558242002691  0.21581928477883144  1.0000
  C   C3        1.0  0.2745609329626363  0.6409205378318531  0.2941472009854069  1.0000
  C   C4        1.0  0.306456895640423  0.6767623838551559  0.32134489443215847  1.0000
  C   C5        1.0  0.23647196696033038  0.8170268956484392  0.243841107467496  1.0000
  C   C6        1.0  0.36525612716091865  0.6178989385024137  0.3795656060544988  1.0000
  C   C7        1.0  0.8649739263078332  0.12224053377331497  0.1574127417599769  1.0000
  C   C8        1.0  0.805250677856577  0.18048631203014756  0.21607685314877767  1.0000
  C   C9        1.0  0.7943234592354856  0.2546954661294762  0.2933794350002261  1.0000
  C   C10       1.0  0.6997974486672759  0.2832279859683879  0.3195916045671154  1.0000
  C   C11       1.0  0.7107212473440896  0.2087537697084728  0.24253136371572745  1.0000
  C   C12       1.0  0.6416700712004727  0.3417079063046842  0.37798762486705345  1.0000
  C   C13       1.0  0.8689156396729559  0.8415589552258709  0.15296154302637915  1.0000
  C   C14       1.0  0.8115147880705393  0.7820854168223121  0.2116559584692225  1.0000
  C   C15       1.0  0.6712231758855863  0.7698304628737418  0.2921017636826024  1.0000
  C   C16       1.0  0.7106153746031653  0.6767788888032343  0.31822519327293014  1.0000
  C   C17       1.0  0.8509464805936561  0.6890354969972846  0.23783195458640463  1.0000
  C   C18       1.0  0.6522759232426267  0.6182309350665703  0.3776214727783086  1.0000
  C   C19       1.0  0.1500449214788446  0.11914578479679959  0.8809676782865383  1.0000
  C   C20       1.0  0.2085801316253537  0.1775764015055188  0.8216218264158147  1.0000
  C   C21       1.0  0.28357672632506586  0.2501751618079027  0.681781462586436  1.0000
  C   C22       1.0  0.3108177552964406  0.28181447278260663  0.7177771789405442  1.0000
  C   C23       1.0  0.23566781990169264  0.20938681614420324  0.8575608019217003  1.0000
  C   C24       1.0  0.36882159512995116  0.34071795354711293  0.6586419497695887  1.0000
  C   C25       1.0  0.15004985923079767  0.8426259462720793  0.8743401151422678  1.0000
  C   C26       1.0  0.20857780705199502  0.7843173833401096  0.8156458588015174  1.0000
  C   C27       1.0  0.27892437995248537  0.6449175778092666  0.8042494412426469  1.0000
  C   C28       1.0  0.31086541888515734  0.6818262099508345  0.7115442752038779  1.0000
  C   C29       1.0  0.24060791779862  0.8212190330682674  0.7229427877796725  1.0000
  C   C30       1.0  0.36925241597263186  0.6227199463636524  0.6536621320540379  1.0000
  C   C31       1.0  0.8699289535513018  0.1196372905725696  0.8765594746163644  1.0000
  C   C32       1.0  0.8127438345961622  0.17886467694413  0.8168138815615152  1.0000
  C   C33       1.0  0.6727793324210652  0.2554121432342242  0.8030286921634018  1.0000
  C   C34       1.0  0.7126914412566734  0.2851779562983198  0.7104799396473285  1.0000
  C   C35       1.0  0.8526925328139255  0.2087560274867144  0.724287945238217  1.0000
  C   C36       1.0  0.6544512710012853  0.34406811464382514  0.6517035307817309  1.0000
  N   N1        1.0  0.22417965084343905  0.6931613380943842  0.24077831199593905  1.0000
  N   N2        1.0  0.28766954209088175  0.7647971059360686  0.2963403122098002  1.0000
  N   N3        1.0  0.847513099083848  0.20314506058228693  0.24133657682595094  1.0000
  N   N4        1.0  0.6574765935386182  0.26048627608365393  0.2945069997958997  1.0000
  N   N5        1.0  0.7217049229675182  0.8228658237637488  0.23874160695238827  1.0000
  N   N6        1.0  0.8004322843633318  0.6359609402868004  0.29138188926866365  1.0000
  N   N7        1.0  0.2324428520993038  0.19762794121804464  0.7337222983895163  1.0000
  N   N8        1.0  0.28720917339729374  0.2615072291855114  0.8056635970058821  1.0000
  N   N9        1.0  0.2275702414891896  0.6961358430846759  0.8566855600544518  1.0000
  N   N10       1.0  0.2920318936357447  0.7699773591743548  0.6704721936084612  1.0000
  N   N11       1.0  0.722761055226833  0.2019841560153282  0.8566426844081012  1.0000
  N   N12       1.0  0.8026724298104212  0.26201865172007627  0.6706272994238777  1.0000
  O   O1        1.0  0.00883492155448108  0.9812169754216881  0.016413405628412567  1.0000
  O   O2        1.0  0.19024508037713866  0.8614690848252452  0.07313945093174122  1.0000
  O   O3        1.0  0.0631100332125456  0.8662981032036541  0.19599249881072467  1.0000
  O   O4        1.0  0.3244514960281037  0.5906009758166634  0.4626326151006169  1.0000
  O   O5        1.0  0.44988213895413764  0.6012733215145687  0.3392613180577869  1.0000
  O   O6        1.0  0.8860658700491302  0.1626243928885884  0.07412211384819044  1.0000
  O   O7        1.0  0.887588492640205  0.03869513587699201  0.19734666067430603  1.0000
  O   O8        1.0  0.6216887917715752  0.3012736642241122  0.4612276417214147  1.0000
  O   O9        1.0  0.6203915590357171  0.4252425760729821  0.3378599249690951  1.0000
  O   O10       1.0  0.8935458538425963  0.8590773669235645  0.06960125453552002  1.0000
  O   O11       1.0  0.8873449854915375  0.867313494893999  0.19368205503826663  1.0000
  O   O12       1.0  0.6308072031805453  0.5987960347519491  0.46084260284516887  1.0000
  O   O13       1.0  0.6292246206413098  0.5957544041127106  0.3378560951460729  1.0000
  O   O14       1.0  0.06521210662437232  0.16003004018998013  0.9047240150061673  1.0000
  O   O15       1.0  0.19139324795244764  0.03553495125563438  0.9018039335614392  1.0000
  O   O16       1.0  0.4538179153332251  0.3008850874421967  0.6392593758703244  1.0000
  O   O17       1.0  0.3267843914442636  0.4239799529754577  0.6336008776553261  1.0000
  O   O18       1.0  0.06514669567204118  0.8646250084607416  0.8951465265958807  1.0000
  O   O19       1.0  0.19168845021043526  0.8644609648124303  0.8961612857043664  1.0000
  O   O20       1.0  0.45415836427829265  0.6007498419884099  0.6329369767537544  1.0000
  O   O21       1.0  0.3274403595947319  0.5998067832088125  0.6331187327733406  1.0000
  O   O22       1.0  0.8913020734995882  0.1600975625037862  0.8998782958465344  1.0000
  O   O23       1.0  0.8916193451763021  0.0361102523064147  0.8964213471110085  1.0000
  O   O24       1.0  0.6344898559318254  0.3033774102675507  0.6272777836874899  1.0000
  O   O25       1.0  0.6297115031196442  0.42761743899799837  0.6342951272042686  1.0000
  O   O26       1.0  0.5083677728715656  0.48173311084945425  0.5173829798222159  1.0000
