data_image0
_chemical_formula_structural       HgH12C16N4Cl2O2
_chemical_formula_sum              "Hg1 H12 C16 N4 Cl2 O2"
_cell_length_a       3.804799997630469
_cell_length_b       8.606601930863363
_cell_length_c       12.914130249703277
_cell_angle_alpha    94.76581291282648
_cell_angle_beta     92.85667900560541
_cell_angle_gamma    99.06488769765356

_space_group_name_H-M_alt    "P 1"
_space_group_IT_number       1

loop_
  _space_group_symop_operation_xyz
  'x, y, z'

loop_
  _atom_site_type_symbol
  _atom_site_label
  _atom_site_symmetry_multiplicity
  _atom_site_fract_x
  _atom_site_fract_y
  _atom_site_fract_z
  _atom_site_occupancy
  Hg  Hg1       1.0  0.5000034385745309  0.5000006740323499  0.5000007058269491  1.0000
  H   H1        1.0  0.8963815993353069  0.6237583206045089  0.02521655124524361  1.0000
  H   H2        1.0  0.10362259388693222  0.37624300196253563  0.9747825008720314  1.0000
  H   H3        1.0  0.6547544485102608  0.3379592118288315  0.2719355414737734  1.0000
  H   H4        1.0  0.34524321235395666  0.6620385558327584  0.7280632397244347  1.0000
  H   H5        1.0  0.774174191052559  0.8937281762808099  0.03494293694346601  1.0000
  H   H6        1.0  0.22582519117319322  0.10627433139284653  0.9650576628438046  1.0000
  H   H7        1.0  0.5878564032762271  0.11616394594833682  0.14134233932870194  1.0000
  H   H8        1.0  0.41213298632843737  0.8838326453821067  0.8586585954389961  1.0000
  H   H9        1.0  0.3716310642843936  0.07889802586240793  0.3193510633490746  1.0000
  H   H10       1.0  0.6283561139060937  0.921099742006369  0.6806499038945903  1.0000
  H   H11       1.0  0.35536579844234245  0.8184385254654599  0.39110233066944744  1.0000
  H   H12       1.0  0.6446284021588083  0.1815568807583787  0.608897056428262  1.0000
  C   C1        1.0  0.6561741121667312  0.4506428810643968  0.238830612559056  1.0000
  C   C2        1.0  0.3438274308664901  0.5493584296313686  0.7611676299138566  1.0000
  C   C3        1.0  0.7895567744123965  0.4639828600468477  0.13562744148882902  1.0000
  C   C4        1.0  0.2104470137728143  0.5360172877369606  0.8643723184003775  1.0000
  C   C5        1.0  0.6758667241682376  0.7322238115866001  0.15345863568678206  1.0000
  C   C6        1.0  0.3241379246977445  0.26777870620323807  0.8465420334969593  1.0000
  C   C7        1.0  0.6818159342492932  0.8786181402448678  0.11259381887004592  1.0000
  C   C8        1.0  0.31818701012405626  0.1213796443460922  0.8874058066707633  1.0000
  C   C9        1.0  0.575173869995034  0.0018022477091222003  0.1727573877154143  1.0000
  C   C10       1.0  0.42482291264841626  0.9982002685328125  0.8272447272658782  1.0000
  C   C11       1.0  0.4584421795364762  0.9815795833612243  0.27332059489619814  1.0000
  C   C12       1.0  0.5415546881225951  0.018415841547067706  0.7266803767920039  1.0000
  C   C13       1.0  0.44815167048558635  0.8372136990847211  0.31395649118811525  1.0000
  C   C14       1.0  0.5518442346081898  0.1627864403379959  0.6860439395525193  1.0000
  C   C15       1.0  0.5577661277831468  0.7102826562480119  0.254775802380081  1.0000
  C   C16       1.0  0.4422367997213001  0.2897151215297598  0.745223048214598  1.0000
  N   N1        1.0  0.5511147194715774  0.5660332900051442  0.2944888843979072  1.0000
  N   N2        1.0  0.4488851359379142  0.43396329430492386  0.7055090893782109  1.0000
  N   N3        1.0  0.7863308305904513  0.6071311914262979  0.09783248378411002  1.0000
  N   N4        1.0  0.2136790511779409  0.3928713228533525  0.9021667049038413  1.0000
  Cl  Cl1       1.0  0.9581268853354957  0.7203263089756645  0.5518887869447867  1.0000
  Cl  Cl2       1.0  0.04186719651222151  0.27967617495543357  0.4481101935537525  1.0000
  O   O1        1.0  0.9047539493820409  0.3522427164178694  0.08553701879191071  1.0000
  O   O2        1.0  0.09525242151656953  0.6477574159844723  0.9144604509571439  1.0000
