data_image0
_chemical_formula_structural       Zn2H22C30Br6N2O8
_chemical_formula_sum              "Zn2 H22 C30 Br6 N2 O8"
_cell_length_a       10.119392584135891
_cell_length_b       11.26104476679364
_cell_length_c       13.778713245778068
_cell_angle_alpha    85.11374389920864
_cell_angle_beta     111.3476685456384
_cell_angle_gamma    93.26694022020727

_space_group_name_H-M_alt    "P 1"
_space_group_IT_number       1

loop_
  _space_group_symop_operation_xyz
  'x, y, z'

loop_
  _atom_site_type_symbol
  _atom_site_label
  _atom_site_symmetry_multiplicity
  _atom_site_fract_x
  _atom_site_fract_y
  _atom_site_fract_z
  _atom_site_occupancy
  Zn  Zn1       1.0  0.6419152173611522  0.4763282940224157  0.5158267948697528  1.0000
  Zn  Zn2       1.0  0.34912640856244087  0.46958702987814155  0.48249420047577735  1.0000
  H   H1        1.0  0.2502849994475937  0.6410877043408617  0.17715481588322748  1.0000
  H   H2        1.0  0.0671702179372247  0.7712517778216536  0.6673579975053414  1.0000
  H   H3        1.0  0.09017146113125561  0.5534327026395687  0.7234661270451568  1.0000
  H   H4        1.0  0.0714448169802111  0.6343684806766562  0.8203159942811452  1.0000
  H   H5        1.0  0.7104576703488448  0.6628476169529164  0.7260947993770798  1.0000
  H   H6        1.0  0.7993863683901595  0.7103640549301531  0.8541713040832589  1.0000
  H   H7        1.0  0.8907884061318118  0.7086390599719651  0.766338158468706  1.0000
  H   H8        1.0  0.9582069836984174  0.5335752343192368  0.8981078295132218  1.0000
  H   H9        1.0  0.864662954697714  0.4812023412160684  0.7736066355318272  1.0000
  H   H10       1.0  0.9449261343524782  0.24056039342703173  0.038341109308383664  1.0000
  H   H11       1.0  0.003766202632313306  0.3323123134585515  0.9502442775682169  1.0000
  H   H12       1.0  0.5945267040792784  0.8797580842331739  0.4794569061434543  1.0000
  H   H13       1.0  0.11602049382003092  0.3123198556797036  0.0837262869656357  1.0000
  H   H14       1.0  0.005904603006584406  0.5113319606091695  0.051977288051034486  1.0000
  H   H15       1.0  0.9472537232556139  0.41865194614625534  0.1379860927285678  1.0000
  H   H16       1.0  0.8950425398766984  0.6483457979256285  0.49741796415351314  1.0000
  H   H17       1.0  0.8829868244048881  0.38792595017575593  0.5215852571594651  1.0000
  H   H18       1.0  0.1287992282292549  0.6307975884417091  0.492972449863977  1.0000
  H   H19       1.0  0.7214713270007778  0.42111451085041557  0.11696940980823459  1.0000
  H   H20       1.0  0.3147234876347156  0.5099351813934945  0.7243021609118827  1.0000
  H   H21       1.0  0.2191861763725598  0.8050723787527688  0.7775461955310518  1.0000
  H   H22       1.0  0.23787185461686275  0.7231768182332986  0.6791951715409041  1.0000
  C   C1        1.0  0.49820287460256923  0.2416712231897122  0.5141640905388769  1.0000
  C   C2        1.0  0.6001132672153205  0.4725433053634801  0.8150010683211804  1.0000
  C   C3        1.0  0.3840962143330914  0.9118269913834782  0.449737834587836  1.0000
  C   C4        1.0  0.5568969502972722  0.474606704890185  0.698019282116128  1.0000
  C   C5        1.0  0.4909783888154706  0.8371599027312939  0.4687300035947715  1.0000
  C   C6        1.0  0.40493731969018404  0.04120260821667902  0.4449363177334291  1.0000
  C   C7        1.0  0.4845958175604963  0.1073578904842023  0.5232659276981195  1.0000
  C   C8        1.0  0.9288875506418609  0.5565202758236649  0.502537480039628  1.0000
  C   C9        1.0  0.06803004062833651  0.5461464000019092  0.4919747851458994  1.0000
  C   C10       1.0  0.49059395614856527  0.7050594181398183  0.48000873613438694  1.0000
  C   C11       1.0  0.4184166634200963  0.476833458849903  0.29908154305641693  1.0000
  C   C12       1.0  0.5409514921389301  0.45846980574987833  0.9750734970391121  1.0000
  C   C13       1.0  0.2667283573218597  0.6224564805603875  0.0279591692496126  1.0000
  C   C14       1.0  0.3896257551603384  0.5002365622458953  0.18435919334304166  1.0000
  C   C15       1.0  0.7456050580376185  0.4757521654569673  0.8775919431643827  1.0000
  C   C16       1.0  0.7872763735039002  0.44779453143053877  0.9868849086376628  1.0000
  C   C17       1.0  0.6849836316305656  0.43657674725599793  0.03250208116578789  1.0000
  C   C18       1.0  0.14372889048544124  0.619847557077982  0.7806079672910541  1.0000
  C   C19       1.0  0.168447837286223  0.7362939112270439  0.7227130508959547  1.0000
  C   C20       1.0  0.8543331793124125  0.5317099941638973  0.8347417721085293  1.0000
  C   C21       1.0  0.8112154301549735  0.6605895395868302  0.7926981813743693  1.0000
  C   C22       1.0  0.9408985780139006  0.4307364709313646  0.056357466207984354  1.0000
  C   C23       1.0  0.4977016892505972  0.47463679596904035  0.864301722336009  1.0000
  C   C24       1.0  0.005282470514046601  0.32282975386505797  0.030677040764914  1.0000
  C   C25       1.0  0.44309439517293475  0.4842725275639523  0.025885804251096503  1.0000
  C   C26       1.0  0.3267963180217778  0.5618265258881223  0.9679695240681384  1.0000
  C   C27       1.0  0.27904200955993014  0.5649149548465502  0.8553237319851447  1.0000
  C   C28       1.0  0.35605406466591216  0.5110622333898931  0.8086733592755307  1.0000
  C   C29       1.0  0.4605722516340053  0.4467022764050272  0.13074292496365558  1.0000
  C   C30       1.0  0.29712656374322677  0.5928043066765909  0.1329979766488876  1.0000
  Br  Br1       1.0  0.3075357134252742  0.12073650667527148  0.3113205027375372  1.0000
  Br  Br2       1.0  0.5843186660881727  0.0399986589859651  0.6599200493401298  1.0000
  Br  Br3       1.0  0.0533380697479728  0.3012967557930822  0.4717339065571692  1.0000
  Br  Br4       1.0  0.15279323818605664  0.7605396808959101  0.9760318992776787  1.0000
  Br  Br5       1.0  0.5648556901252988  0.3078410192500058  0.20021549086028048  1.0000
  Br  Br6       1.0  0.19157963253115182  0.8642219620127849  0.43024768292481497  1.0000
  N   N1        1.0  0.8463518558093387  0.4722173244447844  0.5178843586155396  1.0000
  N   N2        1.0  0.134258502603565  0.4574871092000308  0.4799269309786993  1.0000
  O   O1        1.0  0.6093584313387481  0.2875078229730902  0.5039113563669986  1.0000
  O   O2        1.0  0.39341050447901443  0.2941462016465763  0.5196385578255871  1.0000
  O   O3        1.0  0.6497511564854648  0.44309416563936577  0.6630849352979595  1.0000
  O   O4        1.0  0.43149510794550855  0.5030424487931882  0.6381127499212694  1.0000
  O   O5        1.0  0.6131611017818416  0.659063679570913  0.5156044831258697  1.0000
  O   O6        1.0  0.3712850077974608  0.6487006528781052  0.4529009701852899  1.0000
  O   O7        1.0  0.5466415772923414  0.4944307338260002  0.35821936122591314  1.0000
  O   O8        1.0  0.31341758107087964  0.45046735065276533  0.32745762496453057  1.0000
