data_image0
_chemical_formula_structural       Hf6H22C138Br60O32
_chemical_formula_sum              "Hf6 H22 C138 Br60 O32"
_cell_length_a       19.923904679848174
_cell_length_b       19.958452350225585
_cell_length_c       19.988785705927693
_cell_angle_alpha    94.42991167569522
_cell_angle_beta     93.37519561471125
_cell_angle_gamma    94.17817380374706

_space_group_name_H-M_alt    "P 1"
_space_group_IT_number       1

loop_
  _space_group_symop_operation_xyz
  'x, y, z'

loop_
  _atom_site_type_symbol
  _atom_site_label
  _atom_site_symmetry_multiplicity
  _atom_site_fract_x
  _atom_site_fract_y
  _atom_site_fract_z
  _atom_site_occupancy
  Hf  Hf1       1.0  0.8129734694315546  0.9643385962359753  0.8693233193878172  1.0000
  Hf  Hf2       1.0  0.7767009170304462  0.8624877145254854  0.0007046813023662479  1.0000
  Hf  Hf3       1.0  0.9792429846741658  0.9981084883273323  0.9383810705790693  1.0000
  Hf  Hf4       1.0  0.9127429556996988  0.8320075927521698  0.9026087613155909  1.0000
  Hf  Hf5       1.0  0.8415559127261362  0.03052771333896229  0.03480606704035692  1.0000
  Hf  Hf6       1.0  0.9407841405024585  0.8981651211697534  0.07038664309725816  1.0000
  H   H1        1.0  0.9273133743272695  0.3030602080053767  0.6012442504631252  1.0000
  H   H2        1.0  0.9354136832774885  0.282632103117038  0.3860862418809674  1.0000
  H   H3        1.0  0.9635876844021855  0.11178838063487716  0.5003762474953888  1.0000
  H   H4        1.0  0.7983223275600367  0.7522082768525563  0.4402917280015544  1.0000
  H   H5        1.0  0.8449721772659943  0.590014918506675  0.5605023781962402  1.0000
  H   H6        1.0  0.8444750705858084  0.5615893333471148  0.34466051196641695  1.0000
  H   H7        1.0  0.24924809097198872  0.5526817826794641  0.998589923667538  1.0000
  H   H8        1.0  0.21244533004806243  0.33644621404124553  0.9878368058193486  1.0000
  H   H9        1.0  0.051703907061067894  0.46299566776350065  0.03052942031185069  1.0000
  H   H10       1.0  0.5043720698035372  0.31047372685682717  0.9183858685787952  1.0000
  H   H11       1.0  0.5477137141210591  0.5258050640822275  0.9417904146953118  1.0000
  H   H12       1.0  0.7084718202550704  0.39606688989417177  0.9119261675089306  1.0000
  H   H13       1.0  0.48934227033129934  0.8892998265192342  0.32106902313743996  1.0000
  H   H14       1.0  0.2756194062851733  0.9084247410418268  0.30664436506370407  1.0000
  H   H15       1.0  0.3984597173721697  0.9860441800822097  0.15670133707049416  1.0000
  H   H16       1.0  0.2540272231461813  0.8451741941040679  0.5944763269478628  1.0000
  H   H17       1.0  0.4701743178703026  0.8564714802256784  0.6273563132333988  1.0000
  H   H18       1.0  0.34558638452253393  0.8530837854119611  0.7958424131456852  1.0000
  H   H19       1.0  0.7745546551641951  0.8240460063507694  0.8618322032899783  1.0000
  H   H20       1.0  0.878793091188463  0.08923432010120537  0.9173907345104126  1.0000
  H   H21       1.0  0.036174500836644086  0.8791686198281069  0.9733540106645292  1.0000
  H   H22       1.0  0.8201418065463031  0.932048397464001  0.1264927787218326  1.0000
  C   C1        1.0  0.9489031057291938  0.20494544857572805  0.5579620617015804  1.0000
  C   C2        1.0  0.9364324866422536  0.2728034806231179  0.555394385526867  1.0000
  C   C3        1.0  0.932302222379235  0.3009303995769271  0.49334441042179117  1.0000
  C   C4        1.0  0.9408933877512666  0.26101639407730187  0.43437200143458193  1.0000
  C   C5        1.0  0.9514780148000384  0.1925752812971097  0.436233915028879  1.0000
  C   C6        1.0  0.956988596472094  0.16532517330235658  0.4983467974121965  1.0000
  C   C7        1.0  0.8187954628486551  0.6594445732998933  0.3850700636423382  1.0000
  C   C8        1.0  0.8094554309060912  0.6998740803151617  0.4438111845722119  1.0000
  C   C9        1.0  0.8192549826638641  0.6754374647262933  0.5069570299126197  1.0000
  C   C10       1.0  0.8358615355047763  0.6090617343242923  0.5113591323232143  1.0000
  C   C11       1.0  0.8439152816617153  0.567761517187101  0.4530548615216147  1.0000
  C   C12       1.0  0.8355511545568675  0.5929947988405215  0.3898384037202547  1.0000
  C   C13       1.0  0.1478512068609561  0.5151064178047517  0.016104425433432785  1.0000
  C   C14       1.0  0.2151727134005554  0.5082134899197469  0.002987145262295593  1.0000
  C   C15       1.0  0.23842358217341092  0.443845044985103  0.9930131499401185  1.0000
  C   C16       1.0  0.19438800871834866  0.3864427139808412  0.9966376743000394  1.0000
  C   C17       1.0  0.127173032942558  0.3932405383288823  0.010991842407534591  1.0000
  C   C18       1.0  0.104415098849671  0.45752987552357627  0.020940822240682194  1.0000
  C   C19       1.0  0.6091450065020468  0.3455959115412383  0.9139667864887215  1.0000
  C   C20       1.0  0.5406183820711945  0.35424578022306  0.9200438492630879  1.0000
  C   C21       1.0  0.518521699594558  0.41889119674388553  0.9313387362931776  1.0000
  C   C22       1.0  0.5647473451692449  0.47534163165992976  0.9331317083425575  1.0000
  C   C23       1.0  0.6329352989085778  0.4670272380816909  0.9246813161983737  1.0000
  C   C24       1.0  0.6549720742106047  0.40232605717273623  0.9161791916864744  1.0000
  C   C25       1.0  0.45235293096489226  0.9374498875820902  0.2341226731118624  1.0000
  C   C26       1.0  0.4456503316732566  0.9067471673121401  0.29432576683501566  1.0000
  C   C27       1.0  0.38292690770447996  0.9003801728131293  0.3222434241787369  1.0000
  C   C28       1.0  0.3248691006920269  0.9166654520812255  0.2862906147615689  1.0000
  C   C29       1.0  0.33064049390513617  0.9449590261504638  0.2249382942532634  1.0000
  C   C30       1.0  0.3944165907722734  0.9594998759335025  0.2019805893384898  1.0000
  C   C31       1.0  0.2922120215341195  0.8475932317735225  0.6981922253579924  1.0000
  C   C32       1.0  0.29868435195733417  0.8460934530988736  0.628781375039587  1.0000
  C   C33       1.0  0.3626221688729033  0.8496814510661822  0.6032261407614712  1.0000
  C   C34       1.0  0.42028069988187877  0.8520160878470686  0.6470199927901773  1.0000
  C   C35       1.0  0.4139303374406893  0.8520364667489845  0.7163094811534378  1.0000
  C   C36       1.0  0.3501393467865768  0.8502172232399088  0.7416534187522216  1.0000
  C   C37       1.0  0.9238873777875157  0.0530818163321527  0.797048554369681  1.0000
  C   C38       1.0  0.6664914184080005  0.8918591655015355  0.8810175226261661  1.0000
  C   C39       1.0  0.8421262083179712  0.8459732924121467  0.7570933109822632  1.0000
  C   C40       1.0  0.7474852268402757  0.09915020005877298  0.9306618116726852  1.0000
  C   C41       1.0  0.8328233110499356  0.8046790026284966  0.1407975614609924  1.0000
  C   C42       1.0  0.0863892198395746  0.9733345516740354  0.061237866414138885  1.0000
  C   C43       1.0  0.7978525340894151  0.7172440295128337  0.9319696008141777  1.0000
  C   C44       1.0  0.6993671686176698  0.96409747789594  0.09106407760719286  1.0000
  C   C45       1.0  0.9613748784818058  0.1435249798357887  0.013285249494707291  1.0000
  C   C46       1.0  0.050374809536563696  0.8907306302274375  0.8429035191610766  1.0000
  C   C47       1.0  0.9969647249970139  0.7560298669095004  0.010250167322212194  1.0000
  C   C48       1.0  0.9170519852771193  0.027625354008932793  0.1786379036156873  1.0000
  C   C49       1.0  0.1447121275875389  0.8177190765333577  0.8081597056718265  1.0000
  C   C50       1.0  0.1094396960574429  0.8757717620816119  0.8009447802784706  1.0000
  C   C51       1.0  0.1313206438107528  0.9205545015037515  0.7540930372321952  1.0000
  C   C52       1.0  0.19000773169084786  0.9109477255707926  0.7201588673045477  1.0000
  C   C53       1.0  0.22639849283585534  0.8539256202225187  0.7285473210996258  1.0000
  C   C54       1.0  0.20115069261562013  0.8063136967506065  0.7710835594250867  1.0000
  C   C55       1.0  0.5054866936263521  0.8061609183669984  0.7885867049920705  1.0000
  C   C56       1.0  0.47494541295522213  0.8610779498503616  0.7635443858180935  1.0000
  C   C57       1.0  0.5025567243074747  0.9265117985527666  0.7852206538500681  1.0000
  C   C58       1.0  0.5629378160613285  0.9367074736731306  0.8254603957393057  1.0000
  C   C59       1.0  0.5958487784374356  0.8812699665310004  0.8475472622257029  1.0000
  C   C60       1.0  0.5641561777472502  0.8158978225194384  0.832090697694447  1.0000
  C   C61       1.0  0.24076897467391944  0.017684090380541296  0.1828110159031837  1.0000
  C   C62       1.0  0.2703438525704911  0.9558902186632204  0.18078591106054626  1.0000
  C   C63       1.0  0.24374747198402255  0.9037089240327416  0.1327409593060267  1.0000
  C   C64       1.0  0.18911573401779688  0.9136698016754035  0.08843554720724704  1.0000
  C   C65       1.0  0.1565641776948894  0.9735067829442058  0.0946984568218099  1.0000
  C   C66       1.0  0.1838094594576347  0.026419824990142594  0.1404690139916625  1.0000
  C   C67       1.0  0.6396755523412241  0.969044845171602  0.20064097900360167  1.0000
  C   C68       1.0  0.6366513425453846  0.9655114419031107  0.13042235309148958  1.0000
  C   C69       1.0  0.5734589440283386  0.9497684679816555  0.09550571042152707  1.0000
  C   C70       1.0  0.5167822886810853  0.9320697693609146  0.13011655050734558  1.0000
  C   C71       1.0  0.5169987312439871  0.9451924332065641  0.20094109489282624  1.0000
  C   C72       1.0  0.5800059898262546  0.9662007293241427  0.23522355249015445  1.0000
  C   C73       1.0  0.38136093656220993  0.9259233199600203  0.5115025591212188  1.0000
  C   C74       1.0  0.3692115584410801  0.8599079082557848  0.530788556863733  1.0000
  C   C75       1.0  0.3624991909368093  0.8062339770143648  0.480455948494722  1.0000
  C   C76       1.0  0.3670430677327162  0.8181696405664383  0.41241166096294524  1.0000
  C   C77       1.0  0.3788160514967203  0.8839929509661668  0.39330692501746256  1.0000
  C   C78       1.0  0.38617879245594366  0.9377869722577824  0.4437414309751944  1.0000
  C   C79       1.0  0.6612358776283003  0.17831964528863145  0.9706004968041242  1.0000
  C   C80       1.0  0.7043732515731876  0.1575531032367081  0.920506557179266  1.0000
  C   C81       1.0  0.7098192385479152  0.1958863255920348  0.8643152852810517  1.0000
  C   C82       1.0  0.6747418483267537  0.2542401567455315  0.859757466143293  1.0000
  C   C83       1.0  0.6364873404949236  0.27817627272077067  0.9124329447948157  1.0000
  C   C84       1.0  0.6296941065044663  0.2386874229076241  0.9674576541401123  1.0000
  C   C85       1.0  0.7269298780848319  0.5479359093614062  0.9804079746558969  1.0000
  C   C86       1.0  0.6822264242914784  0.5265896240814882  0.9242662616331713  1.0000
  C   C87       1.0  0.6863095027479035  0.561649095748656  0.8659928671949616  1.0000
  C   C88       1.0  0.7297806097725116  0.6201640178829988  0.8656918335542441  1.0000
  C   C89       1.0  0.7680110609130396  0.6451708156832793  0.9245393656818166  1.0000
  C   C90       1.0  0.7703395403627694  0.6063847829330056  0.9800247093656297  1.0000
  C   C91       1.0  0.029871946829317195  0.2435514639108404  0.07746735682088969  1.0000
  C   C92       1.0  0.9925597201676343  0.21525557932392295  0.01936051758536192  1.0000
  C   C93       1.0  0.990311795713609  0.2515534118496062  0.9621410088489597  1.0000
  C   C94       1.0  0.03403266663816849  0.30921461387639937  0.9588883879757972  1.0000
  C   C95       1.0  0.0787417366810459  0.3331966372138239  0.014396848309701199  1.0000
  C   C96       1.0  0.0737844746809202  0.3014276383705833  0.07455351784071239  1.0000
  C   C97       1.0  0.07604439787769482  0.6819381003337526  0.07398344567382509  1.0000
  C   C98       1.0  0.0336536214043548  0.6924542190919637  0.01665093000418238  1.0000
  C   C99       1.0  0.031197456861257005  0.6431956435403804  0.960585161128698  1.0000
  C   C100      1.0  0.07662509225966832  0.5927705765197685  0.9590338978741642  1.0000
  C   C101      1.0  0.1157284522548494  0.5802921663048791  0.016924838289916994  1.0000
  C   C102      1.0  0.11458545366301111  0.6252797347946738  0.07418826471463547  1.0000
  C   C103      1.0  0.4291315866677508  0.43627856961839473  0.013267087691964694  1.0000
  C   C104      1.0  0.4468253561099261  0.42655114149030027  0.9461703212701167  1.0000
  C   C105      1.0  0.39510771655792354  0.4226383180327389  0.8947025716807318  1.0000
  C   C106      1.0  0.3275755089273887  0.42774092846109074  0.9097757249827154  1.0000
  C   C107      1.0  0.3099092363364093  0.43711898693985757  0.9768093799282908  1.0000
  C   C108      1.0  0.3616186050029171  0.44121433854910913  0.0283200062282489  1.0000
  C   C109      1.0  0.7700921679283255  0.7196606500763351  0.21148383645420665  1.0000
  C   C110      1.0  0.823375916441549  0.7695206792895275  0.2047923692383193  1.0000
  C   C111      1.0  0.8721096596423905  0.783406039751945  0.2600320152669084  1.0000
  C   C112      1.0  0.8724386614385723  0.7429123089595321  0.3142255075155589  1.0000
  C   C113      1.0  0.8198203732981995  0.693347282551947  0.3210412395621987  1.0000
  C   C114      1.0  0.7685799246522648  0.6830228873919777  0.2691889293617749  1.0000
  C   C115      1.0  0.7636156693196697  0.7402328530009752  0.6003304382830095  1.0000
  C   C116      1.0  0.821707632549554  0.7227622992642676  0.5685709954654357  1.0000
  C   C117      1.0  0.8847304403721808  0.7533456511390708  0.5949738778352298  1.0000
  C   C118      1.0  0.8891597377717133  0.7999405861355979  0.6512383998098982  1.0000
  C   C119      1.0  0.8317346240211094  0.8120332014970443  0.686560709781709  1.0000
  C   C120      1.0  0.7683921765336593  0.7842442316229065  0.6592558127896666  1.0000
  C   C121      1.0  0.9957764873202849  0.10898649147939916  0.3493655423539437  1.0000
  C   C122      1.0  0.9448347279227464  0.1484790367864548  0.3723063646056346  1.0000
  C   C123      1.0  0.8838694308980949  0.1451883773622953  0.3323018349538954  1.0000
  C   C124      1.0  0.8772413857632557  0.11189959441392719  0.2673829686234867  1.0000
  C   C125      1.0  0.926902978412052  0.06824543652801647  0.24626267866296564  1.0000
  C   C126      1.0  0.9852472938101756  0.0657155174013226  0.2899740014469003  1.0000
  C   C127      1.0  0.8909174272376958  0.12006424277620906  0.6243134047199064  1.0000
  C   C128      1.0  0.9444581525144359  0.1694683589900308  0.6206600792889176  1.0000
  C   C129      1.0  0.9932368936032889  0.17901168989556027  0.6748568703747181  1.0000
  C   C130      1.0  0.9886864483495403  0.1415209611927679  0.731760377926463  1.0000
  C   C131      1.0  0.9355330639530662  0.09046203389273438  0.7346335050798983  1.0000
  C   C132      1.0  0.8888739510673888  0.07805127704121159  0.6773858097702288  1.0000
  C   C133      1.0  0.9345658008969124  0.48614626805752437  0.4575374896377937  1.0000
  C   C134      1.0  0.8662673490597116  0.49903364141812273  0.46134249780136827  1.0000
  C   C135      1.0  0.8206464720891448  0.44670176982579324  0.47799898651489775  1.0000
  C   C136      1.0  0.8425619347953486  0.3833494168962586  0.4907715673418735  1.0000
  C   C137      1.0  0.9108168722120382  0.370212988303983  0.4863669931685308  1.0000
  C   C138      1.0  0.9564207330717378  0.4226557645649009  0.46991966655494366  1.0000
  Br  Br1       1.0  0.24466343850962596  0.7251739611499415  0.7767611764226743  1.0000
  Br  Br2       1.0  0.11813848081931871  0.754243468935364  0.8692259236878853  1.0000
  Br  Br3       1.0  0.22316820145142202  0.978016889717473  0.6654607636909375  1.0000
  Br  Br4       1.0  0.08002415194196288  0.9932407640977771  0.7339233569790551  1.0000
  Br  Br5       1.0  0.5997397438738828  0.7401623243827441  0.8682522176634463  1.0000
  Br  Br6       1.0  0.4653288541352725  0.7184218680275619  0.761889929646479  1.0000
  Br  Br7       1.0  0.5969536991028123  0.02617527971587209  0.8525963511750022  1.0000
  Br  Br8       1.0  0.45595252161901806  0.0008471798498987997  0.7593966524935211  1.0000
  Br  Br9       1.0  0.1402910213711195  0.10740355678161247  0.1455635890116369  1.0000
  Br  Br10      1.0  0.2778711793073398  0.08874783013175146  0.24544421123545127  1.0000
  Br  Br11      1.0  0.15953186304868436  0.8484235748616976  0.016182839342036452  1.0000
  Br  Br12      1.0  0.28021475930015083  0.8185223076414375  0.1307339487534023  1.0000
  Br  Br13      1.0  0.5864074696566418  0.9945779031655773  0.3284867700257976  1.0000
  Br  Br14      1.0  0.7252860120055118  0.9696709556824742  0.24802687254956618  1.0000
  Br  Br15      1.0  0.4427562222809698  0.882955040514126  0.07954295518186429  1.0000
  Br  Br16      1.0  0.5658209445107758  0.952021665785608  0.0013531008158764865  1.0000
  Br  Br17      1.0  0.4020430734442898  0.026905553009498786  0.4182803805221837  1.0000
  Br  Br18      1.0  0.3905717054547538  0.9991881100511718  0.5783670748780593  1.0000
  Br  Br19      1.0  0.3572372213588864  0.7462565222456445  0.3440220373939055  1.0000
  Br  Br20      1.0  0.34742767149889886  0.7174043149678366  0.5066676213956214  1.0000
  Br  Br21      1.0  0.5813758782268509  0.27041602283908606  0.04115842726508131  1.0000
  Br  Br22      1.0  0.6434104938814543  0.12483686110534356  0.04224090594225769  1.0000
  Br  Br23      1.0  0.6778015251622946  0.302563869333781  0.781634060506704  1.0000
  Br  Br24      1.0  0.7674074738033667  0.17191372171429714  0.7953547185129111  1.0000
  Br  Br25      1.0  0.8358236982100636  0.6337473388712238  0.05138518546469579  1.0000
  Br  Br26      1.0  0.7260277683007317  0.49812961412742146  0.057312660010083505  1.0000
  Br  Br27      1.0  0.7377123018491503  0.6663130431899872  0.7869464416204792  1.0000
  Br  Br28      1.0  0.6320459628857124  0.5287999238581518  0.7876188591038087  1.0000
  Br  Br29      1.0  0.1277410986805592  0.33791547802341876  0.1518081581492936  1.0000
  Br  Br30      1.0  0.016786555099997692  0.20470255057795572  0.1597210951824408  1.0000
  Br  Br31      1.0  0.03431879295234809  0.3549912312355018  0.8794741479494874  1.0000
  Br  Br32      1.0  0.9213039095427579  0.22370959572625534  0.8934438603306062  1.0000
  Br  Br33      1.0  0.16667482473081208  0.6060813595299093  0.15196760798731648  1.0000
  Br  Br34      1.0  0.08158390050838452  0.7403757375136947  0.15369271432352596  1.0000
  Br  Br35      1.0  0.0870483128623505  0.5389781174373024  0.8782957229553715  1.0000
  Br  Br36      1.0  0.9630982450156864  0.6338368527729655  0.8894203017483944  1.0000
  Br  Br37      1.0  0.33776829916123324  0.45268124976193036  0.1187144436141168  1.0000
  Br  Br38      1.0  0.4982218430829235  0.44203816552050057  0.0834015285740861  1.0000
  Br  Br39      1.0  0.2582205885025672  0.42276209902905737  0.8400191264038382  1.0000
  Br  Br40      1.0  0.41891764364715567  0.41121474772042876  0.8042950999927285  1.0000
  Br  Br41      1.0  0.6961920104971072  0.6184598809130646  0.2805127215437153  1.0000
  Br  Br42      1.0  0.6972728549869844  0.701356690715805  0.1458639040880172  1.0000
  Br  Br43      1.0  0.9455697371734646  0.7536958082759923  0.38046985397239297  1.0000
  Br  Br44      1.0  0.933816491212788  0.861128064571041  0.26954228157196514  1.0000
  Br  Br45      1.0  0.6894895133975611  0.806066417929365  0.7024349461735326  1.0000
  Br  Br46      1.0  0.6787411310106677  0.701195777834023  0.5631300999047254  1.0000
  Br  Br47      1.0  0.9706270047096839  0.8520223551885375  0.6778198740372758  1.0000
  Br  Br48      1.0  0.9648374101689826  0.7289104381422148  0.5560894425715546  1.0000
  Br  Br49      1.0  0.0527234605848932  0.006229962522510798  0.2702287798631033  1.0000
  Br  Br50      1.0  0.07966926872138912  0.11616110757385198  0.4005064681317095  1.0000
  Br  Br51      1.0  0.8006764421175773  0.13143851017662908  0.21332865034697326  1.0000
  Br  Br52      1.0  0.8086031528942712  0.18510645499093661  0.36868080692001115  1.0000
  Br  Br53      1.0  0.8267028410111621  0.0012241290497171998  0.6643507946442568  1.0000
  Br  Br54      1.0  0.8195936063129143  0.11206533400630997  0.5558576250039522  1.0000
  Br  Br55      1.0  0.056916567703076716  0.16179762623549712  0.8019767233492344  1.0000
  Br  Br56      1.0  0.0667002666615275  0.24376404841827076  0.6680958976412582  1.0000
  Br  Br57      1.0  0.0486508148206966  0.4058861954076745  0.4659038856867283  1.0000
  Br  Br58      1.0  0.9970203288089227  0.556601279970991  0.43662631357467757  1.0000
  Br  Br59      1.0  0.779829655516771  0.313757918914753  0.513253861168266  1.0000
  Br  Br60      1.0  0.7284023660961624  0.46353666735335947  0.4818475730790723  1.0000
  O   O1        1.0  0.9721824720800996  0.04758366325794579  0.840168873390077  1.0000
  O   O2        1.0  0.6807141144944852  0.8637046969775138  0.9341169589504473  1.0000
  O   O3        1.0  0.8151336824808268  0.9000071730313832  0.7724904966869843  1.0000
  O   O4        1.0  0.7540080010209635  0.056330634678438685  0.8817831446975433  1.0000
  O   O5        1.0  0.7760232664226763  0.09905261512588479  0.9895077312191347  1.0000
  O   O6        1.0  0.8777279729871097  0.8132135820531231  0.7963664640253469  1.0000
  O   O7        1.0  0.7073586353331791  0.9279760639950749  0.8493008610921535  1.0000
  O   O8        1.0  0.8629796839248202  0.030586209052273702  0.8026763975763059  1.0000
  O   O9        1.0  0.792771962644288  0.9575578032541325  0.9681123047514717  1.0000
  O   O10       1.0  0.9075942585562943  0.9317935885047245  0.8865428160864042  1.0000
  O   O11       1.0  0.8036969922699343  0.8546609041301634  0.8929363124037053  1.0000
  O   O12       1.0  0.8785974330456131  0.044082266507736285  0.9327284455175614  1.0000
  O   O13       1.0  0.7839389964761524  0.8082858455429616  0.09803177019345101  1.0000
  O   O14       1.0  0.0747978488487959  0.002916921863224799  0.0086543232900169  1.0000
  O   O15       1.0  0.8499670412118051  0.7341478791412114  0.9025702672572391  1.0000
  O   O16       1.0  0.739739586694121  0.015533609800776598  0.0888498237857789  1.0000
  O   O17       1.0  0.9064553753928807  0.1293715254315657  0.039070095443186396  1.0000
  O   O18       1.0  0.004300962067503604  0.843726062445917  0.8450606353644615  1.0000
  O   O19       1.0  0.9914556123650089  0.7977412730785644  0.060326028571232405  1.0000
  O   O20       1.0  0.9422930913982058  0.9716791962199165  0.16798900680245046  1.0000
  O   O21       1.0  0.9757089747519884  0.7647853296091254  0.9502396252209521  1.0000
  O   O22       1.0  0.8807332759151336  0.05455367870296609  0.13507424431293907  1.0000
  O   O23       1.0  0.7631324104751229  0.7557831904577909  0.9678128137812151  1.0000
  O   O24       1.0  0.05220388204113392  0.9492145658215777  0.873812174545364  1.0000
  O   O25       1.0  0.9963716145611841  0.10340018142317577  0.9794229492041496  1.0000
  O   O26       1.0  0.7048852419428542  0.9052677571620503  0.06287462954829685  1.0000
  O   O27       1.0  0.8929848986741434  0.8289834505384447  0.1338500893919417  1.0000
  O   O28       1.0  0.04379472051970619  0.9382969946419734  0.09235015072758299  1.0000
  O   O29       1.0  0.9309904474216425  0.986752567439808  0.025091789460049065  1.0000
  O   O30       1.0  0.8768607485082357  0.848077673368969  0.9965174926949344  1.0000
  O   O31       1.0  0.9909134595113827  0.8948478998911964  0.9719577080104643  1.0000
  O   O32       1.0  0.8370124156132447  0.9313683032440918  0.08183144958103838  1.0000
