data_image0
_chemical_formula_structural       Cu2H16C24N4O8
_chemical_formula_sum              "Cu2 H16 C24 N4 O8"
_cell_length_a       4.955563632061704
_cell_length_b       10.963962522078576
_cell_length_c       12.752676245778636
_cell_angle_alpha    88.61084328000837
_cell_angle_beta     78.8082640229769
_cell_angle_gamma    82.79174582264218

_space_group_name_H-M_alt    "P 1"
_space_group_IT_number       1

loop_
  _space_group_symop_operation_xyz
  'x, y, z'

loop_
  _atom_site_type_symbol
  _atom_site_label
  _atom_site_symmetry_multiplicity
  _atom_site_fract_x
  _atom_site_fract_y
  _atom_site_fract_z
  _atom_site_occupancy
  Cu  Cu1       1.0  0.9465911262665686  0.2174132233627191  0.22774744216775394  1.0000
  Cu  Cu2       1.0  0.17454539266026364  0.7174828322821297  0.772226296674468  1.0000
  H   H1        1.0  0.11007932513316379  0.4839892389649376  0.6742656317794768  1.0000
  H   H2        1.0  0.7845883899454336  0.9837731095650564  0.3256477312484307  1.0000
  H   H3        1.0  0.3456732776649574  0.3613807033653627  0.5097168442206623  1.0000
  H   H4        1.0  0.8557197049808919  0.8612910932494984  0.49022899675275516  1.0000
  H   H5        1.0  0.9331082460603706  0.6240148072403143  0.446927754218251  1.0000
  H   H6        1.0  0.380067866698937  0.12408901704408488  0.5530324203013919  1.0000
  H   H7        1.0  0.6808877007815182  0.7343654420130858  0.615921540503507  1.0000
  H   H8        1.0  0.2968516528766044  0.23425394316211615  0.38397580370638457  1.0000
  H   H9        1.0  0.6781476609443334  0.9015120086805553  0.7887746842284216  1.0000
  H   H10       1.0  0.4666636829432918  0.4015585918016882  0.2112123675976605  1.0000
  H   H11       1.0  0.38927885903088116  0.0454677345718935  0.9260616679366507  1.0000
  H   H12       1.0  0.3153843894586572  0.5456076465906321  0.07391966632894761  1.0000
  H   H13       1.0  0.9398197661283235  0.9199264922625758  0.1402097382570631  1.0000
  H   H14       1.0  0.07999967735653993  0.41999990526926445  0.8599143049119463  1.0000
  H   H15       1.0  0.20050462840131208  0.7737729528343563  0.9958206078736396  1.0000
  H   H16       1.0  0.1960634356015305  0.27375980792809423  0.004251285736827999  1.0000
  C   C1        1.0  0.2952846375147261  0.5100203370254376  0.6219365038071203  1.0000
  C   C2        1.0  0.9175065407085583  0.009827152304531198  0.3779681367555554  1.0000
  C   C3        1.0  0.4257903125913956  0.44345257678182276  0.5306931721060337  1.0000
  C   C4        1.0  0.9567999504060792  0.9433500728534551  0.4692436567268956  1.0000
  C   C5        1.0  0.658121093978913  0.48425951746985135  0.46573990478906074  1.0000
  C   C6        1.0  0.12399897696113266  0.9842899345128656  0.5342711093350019  1.0000
  C   C7        1.0  0.7502709758457512  0.5912959875098236  0.49559852143320177  1.0000
  C   C8        1.0  0.24596214205770642  0.09130248814609837  0.5043744085826631  1.0000
  C   C9        1.0  0.6109397147962881  0.6527730895064607  0.5881427085930966  1.0000
  C   C10       1.0  0.19913704469756516  0.15268093464454316  0.4117931842126623  1.0000
  C   C11       1.0  0.8158399615397869  0.4142887910665748  0.3675641408568637  1.0000
  C   C12       1.0  0.18341411076198685  0.9144097451917547  0.6324912652975669  1.0000
  C   C13       1.0  0.7300671378507745  0.9076971566081578  0.8674856943998819  1.0000
  C   C14       1.0  0.597413386805414  0.40776353142740607  0.1325541167849096  1.0000
  C   C15       1.0  0.5700704868284135  0.9882462078606334  0.9444896576875764  1.0000
  C   C16       1.0  0.5145283928986617  0.4883453302356313  0.05554285775338031  1.0000
  C   C17       1.0  0.6419062585694134  0.9939839154028078  0.044831601597550716  1.0000
  C   C18       1.0  0.6867400381880556  0.4940504627914775  0.9552333565232588  1.0000
  C   C19       1.0  0.8738306495324936  0.9166546006984716  0.0639552376336709  1.0000
  C   C20       1.0  0.9377598166249539  0.4167287715468645  0.9361478188921241  1.0000
  C   C21       1.0  0.0214637523252821  0.8370813098089229  0.9840844790430623  1.0000
  C   C22       1.0  0.0053970945644792  0.33712528831345867  0.0159916852954964  1.0000
  C   C23       1.0  0.4770131090412592  0.07948707548113279  0.1317587772036291  1.0000
  C   C24       1.0  0.6090217587949099  0.5795040791934267  0.8682425246229499  1.0000
  N   N1        1.0  0.38689572972593544  0.6125201512072207  0.6498900507669277  1.0000
  N   N2        1.0  0.03691640978844648  0.11235947046273508  0.3500025378124647  1.0000
  N   N3        1.0  0.9526022188204593  0.8329580170129345  0.8871525932219199  1.0000
  N   N4        1.0  0.8395137281963088  0.33298286151641304  0.11289481206328131  1.0000
  O   O1        1.0  0.6997582711849901  0.3225420350911249  0.3422699808477391  1.0000
  O   O2        1.0  0.042086021875668775  0.8226847794102808  0.6577589345714117  1.0000
  O   O3        1.0  0.04144239814726793  0.44564536673834704  0.32012906375581457  1.0000
  O   O4        1.0  0.36149531664853657  0.9458505653176483  0.6799589508307946  1.0000
  O   O5        1.0  0.230059605800335  0.1200454286158106  0.11851870072303682  1.0000
  O   O6        1.0  0.34882884983955625  0.6200731831374212  0.8813915146013116  1.0000
  O   O7        1.0  0.5858909405569508  0.10338806451422758  0.208384804683682  1.0000
  O   O8        1.0  0.794639988642409  0.6032971646344834  0.7916515861732946  1.0000
