data_image0
_chemical_formula_structural       Ga4P6H12C6O18
_chemical_formula_sum              "Ga4 P6 H12 C6 O18"
_cell_length_a       5.14239695203368
_cell_length_b       8.04896421417994
_cell_length_c       12.41429998240399
_cell_angle_alpha    91.52263084380198
_cell_angle_beta     101.01492682087449
_cell_angle_gamma    90.56853948922408

_space_group_name_H-M_alt    "P 1"
_space_group_IT_number       1

loop_
  _space_group_symop_operation_xyz
  'x, y, z'

loop_
  _atom_site_type_symbol
  _atom_site_label
  _atom_site_symmetry_multiplicity
  _atom_site_fract_x
  _atom_site_fract_y
  _atom_site_fract_z
  _atom_site_occupancy
  Ga  Ga1       1.0  0.0444244760535355  0.5580031587222507  0.8102316906114666  1.0000
  Ga  Ga2       1.0  0.955574720461897  0.4419969449916933  0.18976899121581436  1.0000
  Ga  Ga3       1.0  0.49433550423086814  0.8844830753947478  0.26257900533631334  1.0000
  Ga  Ga4       1.0  0.5056637069350458  0.11551702455857082  0.7374200665533622  1.0000
  P   P1        1.0  0.5059162750150961  0.7324379577345611  0.7190222318083742  1.0000
  P   P2        1.0  0.4940868063901149  0.267559656112823  0.2809795285320931  1.0000
  P   P3        1.0  0.0588662554727506  0.7404407552014974  0.3772779219607472  1.0000
  P   P4        1.0  0.9411368405829423  0.2595568548852611  0.6227222284421146  1.0000
  P   P5        1.0  0.13198505216601567  0.7495700482744851  0.05312987213294921  1.0000
  P   P6        1.0  0.8680121650312814  0.2504288059610218  0.9468666021456613  1.0000
  H   H1        1.0  0.5626463859675397  0.8223820117339641  0.5433407446176872  1.0000
  H   H2        1.0  0.43735472173698053  0.17761560313139313  0.45666005101555385  1.0000
  H   H3        1.0  0.5188128665698528  0.6044082884828936  0.5459710444526706  1.0000
  H   H4        1.0  0.4811882484599083  0.395589324502147  0.4540289462117642  1.0000
  H   H5        1.0  0.0769555091195429  0.860919372915994  0.5547076931013849  1.0000
  H   H6        1.0  0.923045703340236  0.13908197087481972  0.4452931714305493  1.0000
  H   H7        1.0  0.0318163714118711  0.6433365822326421  0.5534707564590989  1.0000
  H   H8        1.0  0.9681828251035685  0.3566635214813019  0.44652992536818914  1.0000
  H   H9        1.0  0.9158904758294923  0.9859338304627556  0.11243891742410742  1.0000
  H   H10       1.0  0.0841107017118716  0.014066270352906  0.8875619241416005  1.0000
  H   H11       1.0  0.7400974567292025  0.8951373599463182  0.9881856902753939  1.0000
  H   H12       1.0  0.25990372081216156  0.1048627408693434  0.011815151290306896  1.0000
  C   C1        1.0  0.4437334417938034  0.7236264205352256  0.5708856473621182  1.0000
  C   C2        1.0  0.5562637461025233  0.2763724412215396  0.42911404679171744  1.0000
  C   C3        1.0  0.1479428688629696  0.7429447730676343  0.5249794780655748  1.0000
  C   C4        1.0  0.8520543612770268  0.25705532978396656  0.47501943408568076  1.0000
  C   C5        1.0  0.9385458227918946  0.9352638412874582  0.03163932855942162  1.0000
  C   C6        1.0  0.0614555366668128  0.0647424725236618  0.9683608228686326  1.0000
  O   O1        1.0  0.36159593023951697  0.5851161255120089  0.7582582412903491  1.0000
  O   O2        1.0  0.6384131696977705  0.4148852160872564  0.2417472870392885  1.0000
  O   O3        1.0  0.12116140343810142  0.5705508273891624  0.33181359171065594  1.0000
  O   O4        1.0  0.8788456619946814  0.42944677502071477  0.6681860732002393  1.0000
  O   O5        1.0  0.805314246587919  0.7297664636586704  0.7646579212987916  1.0000
  O   O6        1.0  0.19468695292916754  0.27023363151604946  0.23534050536050444  1.0000
  O   O7        1.0  0.18816837014660592  0.6784404510877948  0.9456571514828981  1.0000
  O   O8        1.0  0.8118208643450586  0.32155842978335164  0.054345123592476285  1.0000
  O   O9        1.0  0.9705742767522593  0.6387789280347461  0.11567969262971191  1.0000
  O   O10       1.0  0.029411080174874395  0.3612224408226438  0.8843206989636769  1.0000
  O   O11       1.0  0.2116793439047129  0.8873427307853915  0.3361633635720693  1.0000
  O   O12       1.0  0.7883257810380258  0.11265736799433772  0.6638394074080836  1.0000
  O   O13       1.0  0.7593913317316421  0.7798535419481354  0.3554931728843371  1.0000
  O   O14       1.0  0.24060976473796808  0.220141571924394  0.6445011370660083  1.0000
  O   O15       1.0  0.39329864213710414  0.900177678768351  0.7534064445253607  1.0000
  O   O16       1.0  0.6066966565458642  0.09982366619605897  0.24659072091609602  1.0000
  O   O17       1.0  0.4105001424184778  0.7936402974164737  0.1244052710597003  1.0000
  O   O18       1.0  0.5894990062358403  0.20635731470621718  0.8755929499287095  1.0000
