data_image0
_chemical_formula_structural       Hg4H40C40N8Cl8O8
_chemical_formula_sum              "Hg4 H40 C40 N8 Cl8 O8"
_cell_length_a       8.129605725123064
_cell_length_b       10.311548394017773
_cell_length_c       14.817090943396574
_cell_angle_alpha    89.99993940470377
_cell_angle_beta     89.04578616422911
_cell_angle_gamma    89.99979465328006

_space_group_name_H-M_alt    "P 1"
_space_group_IT_number       1

loop_
  _space_group_symop_operation_xyz
  'x, y, z'

loop_
  _atom_site_type_symbol
  _atom_site_label
  _atom_site_symmetry_multiplicity
  _atom_site_fract_x
  _atom_site_fract_y
  _atom_site_fract_z
  _atom_site_occupancy
  Hg  Hg1       1.0  0.7499989935739464  0.9406652440923722  0.5000003089302679  1.0000
  Hg  Hg2       1.0  0.2500019522563548  0.05934050577042878  0.4999993840925042  1.0000
  Hg  Hg3       1.0  0.9999945803505593  0.5000016811316923  0.5000010906734501  1.0000
  Hg  Hg4       1.0  0.4999979955451935  0.5000033598276372  0.5000005251922843  1.0000
  H   H1        1.0  0.0863689551475346  0.5462498206474535  0.9454867285928046  1.0000
  H   H2        1.0  0.4136315070184864  0.5462500216221287  0.0545123717525016  1.0000
  H   H3        1.0  0.9136356297174332  0.45374235219826187  0.05451498385642849  1.0000
  H   H4        1.0  0.5863633395937313  0.4537411814539425  0.945485305547443  1.0000
  H   H5        1.0  0.8661059842718898  0.0348415327487714  0.9337929302199652  1.0000
  H   H6        1.0  0.6338997769086063  0.03484250949693289  0.0662083233151236  1.0000
  H   H7        1.0  0.13390232518554512  0.9651603379572578  0.06620742671054099  1.0000
  H   H8        1.0  0.3661011860524893  0.9651593612205147  0.9337906947216366  1.0000
  H   H9        1.0  0.916497960619047  0.796702782691902  0.9487315249373649  1.0000
  H   H10       1.0  0.5835080391588291  0.7967048944191432  0.051269858737072085  1.0000
  H   H11       1.0  0.083514056332838  0.203298118222925  0.0512681514655782  1.0000
  H   H12       1.0  0.41649171080091213  0.20329697630052831  0.9487284861591333  1.0000
  H   H13       1.0  0.8945877116005718  0.6504775399139078  0.8171901413510125  1.0000
  H   H14       1.0  0.6054152570251716  0.6504793931642396  0.18281135137410584  1.0000
  H   H15       1.0  0.10542063210314719  0.34952336100662507  0.1828088656050539  1.0000
  H   H16       1.0  0.3945808025687256  0.3495205379877432  0.8171869990633027  1.0000
  H   H17       1.0  0.820879734631454  0.7340432868619969  0.6656665806409592  1.0000
  H   H18       1.0  0.6791216442600359  0.7340447049261769  0.3343341797891596  1.0000
  H   H19       1.0  0.1791273789444858  0.2659595536331949  0.334332428161261  1.0000
  H   H20       1.0  0.32087193796499486  0.2659552262288116  0.6656648493293175  1.0000
  H   H21       1.0  0.7109829350119128  0.2108048852568841  0.6275222852982267  1.0000
  H   H22       1.0  0.789014652146335  0.2108049649724109  0.3724788547570909  1.0000
  H   H23       1.0  0.2890105958469675  0.7891950458966618  0.3724787687824147  1.0000
  H   H24       1.0  0.2109850806979168  0.7891939963873967  0.6275201651275351  1.0000
  H   H25       1.0  0.7377217400791807  0.23799165347263346  0.8786846459242454  1.0000
  H   H26       1.0  0.762278184760568  0.23799218391578583  0.12131647119224448  1.0000
  H   H27       1.0  0.26228163176475755  0.7620092474534346  0.12131639338134899  1.0000
  H   H28       1.0  0.237715397460093  0.7620096868121137  0.8786825579255434  1.0000
  H   H29       1.0  0.7034347925477532  0.3290101146520144  0.7791623676044495  1.0000
  H   H30       1.0  0.7965659692055522  0.32901039931212483  0.22083800824765373  1.0000
  H   H31       1.0  0.29656487179953916  0.6709927258517112  0.22083935222835993  1.0000
  H   H32       1.0  0.2034337807541888  0.6709914714075464  0.7791603366485588  1.0000
  H   H33       1.0  0.04847979762921279  0.2293353912296893  0.8194001375385581  1.0000
  H   H34       1.0  0.4515220418954939  0.22933529655127663  0.1806012121067297  1.0000
  H   H35       1.0  0.9515200550737718  0.7706616305605607  0.1805941574350314  1.0000
  H   H36       1.0  0.5484787327339616  0.7706617252286064  0.8194052307930305  1.0000
  H   H37       1.0  0.9967474577837834  0.3651332937936046  0.753422402718904  1.0000
  H   H38       1.0  0.503250663749334  0.3651334019822841  0.24657862624341928  1.0000
  H   H39       1.0  0.003249780562988699  0.634868576928113  0.24657797083315094  1.0000
  H   H40       1.0  0.4967502135993128  0.6348694385192246  0.7534237667299449  1.0000
  C   C1        1.0  0.8151008972496143  0.015779589454112397  0.79040168273756  1.0000
  C   C2        1.0  0.6849000293715689  0.015781177323262296  0.2095995916782556  1.0000
  C   C3        1.0  0.18489881846821277  0.9842213114781373  0.20959801213376747  1.0000
  C   C4        1.0  0.31510214659743957  0.9842177840325872  0.7904000995000827  1.0000
  C   C5        1.0  0.8560876279566755  0.9702656052149548  0.8758824253251659  1.0000
  C   C6        1.0  0.6439163592367407  0.9702674369007342  0.12411883733438597  1.0000
  C   C7        1.0  0.1439182554980434  0.02973626549551509  0.12411658532423787  1.0000
  C   C8        1.0  0.3560858167278981  0.029733464028033986  0.8758808538432702  1.0000
  C   C9        1.0  0.883758125535337  0.8371507314053941  0.8835105195599693  1.0000
  C   C10       1.0  0.6162464788928333  0.8371526529411569  0.11649016234165536  1.0000
  C   C11       1.0  0.11625025241249179  0.16285016951609066  0.11648713742132337  1.0000
  C   C12       1.0  0.38375448407045093  0.1628482479898352  0.8835088556954459  1.0000
  C   C13       1.0  0.8719255661992094  0.7537055283555957  0.8084698751113066  1.0000
  C   C14       1.0  0.6280781500543995  0.7537063345392169  0.19153221768160475  1.0000
  C   C15       1.0  0.12808277750450972  0.246295372564937  0.19152913184476716  1.0000
  C   C16       1.0  0.37192035266425444  0.24629359660879402  0.808466804049516  1.0000
  C   C17       1.0  0.8313268966014745  0.7991847553464452  0.7231677324058905  1.0000
  C   C18       1.0  0.66867417149696  0.7991853190803937  0.27683365689951234  1.0000
  C   C19       1.0  0.16867403211333  0.20081808515650573  0.27683263560530236  1.0000
  C   C20       1.0  0.33132310109829183  0.2008146120693652  0.7231653666784437  1.0000
  C   C21       1.0  0.8020660649493934  0.9320756111053469  0.7150486288993105  1.0000
  C   C22       1.0  0.6979331739206885  0.9320770495354219  0.28495266818170956  1.0000
  C   C23       1.0  0.19793363364200894  0.06792722939934488  0.284951740958725  1.0000
  C   C24       1.0  0.30206536303988674  0.0679238514000104  0.715045003574289  1.0000
  C   C25       1.0  0.7445413412723028  0.12870462444324454  0.6693512794742063  1.0000
  C   C26       1.0  0.7554590591352833  0.12870583153873125  0.33065058999164165  1.0000
  C   C27       1.0  0.2554521724623342  0.8712962764962808  0.3306504495934846  1.0000
  C   C28       1.0  0.24454559419821462  0.871295069387031  0.669348422504946  1.0000
  C   C29       1.0  0.7851797830865832  0.258319331081708  0.8104361831640928  1.0000
  C   C30       1.0  0.7148200501133601  0.25831892443904536  0.1895649195631464  1.0000
  C   C31       1.0  0.21481743814469212  0.7416796302801529  0.18956486537638276  1.0000
  C   C32       1.0  0.285180895732239  0.741680036918545  0.8104347734620274  1.0000
  C   C33       1.0  0.9612966949465971  0.3107922841019218  0.8144287356805789  1.0000
  C   C34       1.0  0.5387029016940873  0.31079141303973756  0.1855723299022216  1.0000
  C   C35       1.0  0.03870795838471959  0.6892095866102962  0.18557027681566748  1.0000
  C   C36       1.0  0.4612917907978016  0.6892094878966047  0.8144314222807976  1.0000
  C   C37       1.0  0.9866619176199053  0.3917984492477871  0.8972050485183869  1.0000
  C   C38       1.0  0.5133361008221087  0.391798743461699  0.10279528658072218  1.0000
  C   C39       1.0  0.013335218014233902  0.6081946933929244  0.10279937496109427  1.0000
  C   C40       1.0  0.48666124027884183  0.6081934293983124  0.8972010370504293  1.0000
  N   N1        1.0  0.7774534501800686  0.13893381875778493  0.7585689208204583  1.0000
  N   N2        1.0  0.7225481513590567  0.1389342825677815  0.24143226457037056  1.0000
  N   N3        1.0  0.2225413279242616  0.8610661123944965  0.24143145642595695  1.0000
  N   N4        1.0  0.2774577149823543  0.8610637089963833  0.758567421067795  1.0000
  N   N5        1.0  0.7572857453995849  0.006581358146362997  0.6413017056396555  1.0000
  N   N6        1.0  0.7427139925668342  0.0065825595124949  0.3586995771343879  1.0000
  N   N7        1.0  0.24271147582513924  0.9934205125748717  0.35869934289978284  1.0000
  N   N8        1.0  0.25728821763971876  0.9934193112036881  0.6412987640681463  1.0000
  Cl  Cl1       1.0  0.0010936463990773994  0.7818841466245061  0.48955183719791506  1.0000
  Cl  Cl2       1.0  0.49890566786426394  0.7818834252151347  0.5104504712835974  1.0000
  Cl  Cl3       1.0  0.9989072138318987  0.2181167543036082  0.5104512307635217  1.0000
  Cl  Cl4       1.0  0.50109283485002  0.2181184455058016  0.489548550446841  1.0000
  Cl  Cl5       1.0  0.8165976449486294  0.48543875182804885  0.37416119720154467  1.0000
  Cl  Cl6       1.0  0.6833974739684835  0.48544069241616933  0.6258397502918527  1.0000
  Cl  Cl7       1.0  0.1833946729023381  0.514564088687095  0.6258391837375185  1.0000
  Cl  Cl8       1.0  0.31660099448858153  0.5145669970225555  0.3741606214113061  1.0000
  O   O1        1.0  0.9200664622690269  0.36320918384445366  0.9709291868524373  1.0000
  O   O2        1.0  0.5799304206949217  0.3632084294783908  0.0290725203064568  1.0000
  O   O3        1.0  0.07994811768384119  0.6367820192051779  0.029066435935924093  1.0000
  O   O4        1.0  0.4200494418541254  0.636780834039449  0.9709339539923005  1.0000
  O   O5        1.0  0.0851177727654502  0.49271959351443667  0.8864841508005553  1.0000
  O   O6        1.0  0.41488043623661497  0.492719702870481  0.11351634110626917  1.0000
  O   O7        1.0  0.9148794827121235  0.5072783980619204  0.11351554776548059  1.0000
  O   O8        1.0  0.5851216883662359  0.5072792584839262  0.8864853750342332  1.0000
