data_image0
_chemical_formula_structural       Cd8H68C64N40O28
_chemical_formula_sum              "Cd8 H68 C64 N40 O28"
_cell_length_a       12.44458052201686
_cell_length_b       15.276172355921728
_cell_length_c       15.408365360430658
_cell_angle_alpha    96.58482321923339
_cell_angle_beta     90.00015953825327
_cell_angle_gamma    90.00008142588597

_space_group_name_H-M_alt    "P 1"
_space_group_IT_number       1

loop_
  _space_group_symop_operation_xyz
  'x, y, z'

loop_
  _atom_site_type_symbol
  _atom_site_label
  _atom_site_symmetry_multiplicity
  _atom_site_fract_x
  _atom_site_fract_y
  _atom_site_fract_z
  _atom_site_occupancy
  Cd  Cd1       1.0  0.15564529416673167  0.3260409425955118  0.3193761560451732  1.0000
  Cd  Cd2       1.0  0.6556477514440783  0.6739603663465984  0.1806251543041668  1.0000
  Cd  Cd3       1.0  0.8443532434285571  0.6739609172694186  0.6806222724530357  1.0000
  Cd  Cd4       1.0  0.3443531968444304  0.3260401917313018  0.8193770254456682  1.0000
  Cd  Cd5       1.0  0.15437262222217638  0.6204996482130696  0.268358677093687  1.0000
  Cd  Cd6       1.0  0.6543795583108291  0.3794963899553565  0.2316427013185844  1.0000
  Cd  Cd7       1.0  0.8456202904380914  0.3795002482161323  0.731642781077916  1.0000
  Cd  Cd8       1.0  0.34562942560140186  0.6204995608118651  0.7683602711453261  1.0000
  H   H1        1.0  0.021135002493600993  0.9571846767975603  0.269686265899928  1.0000
  H   H2        1.0  0.5211365205205709  0.0428144497467926  0.2303112557939073  1.0000
  H   H3        1.0  0.978863535098746  0.04281651873726129  0.7303107917315544  1.0000
  H   H4        1.0  0.47887005270042227  0.9571867511680594  0.7696871004437256  1.0000
  H   H5        1.0  0.0030482799930310993  0.7969435027540754  0.2733804545343475  1.0000
  H   H6        1.0  0.5030564956434062  0.20305757752004178  0.22661788952868286  1.0000
  H   H7        1.0  0.9969398112890245  0.20305835979054623  0.7266186232494505  1.0000
  H   H8        1.0  0.4969524882610443  0.7969436126479438  0.7733778695190026  1.0000
  H   H9        1.0  0.3342333832033475  0.7620753994427715  0.2764744343856975  1.0000
  H   H10       1.0  0.8342416495590681  0.2379235555930066  0.2235335118390509  1.0000
  H   H11       1.0  0.6657579223468771  0.23792519087399458  0.7235355369310668  1.0000
  H   H12       1.0  0.1657697450439102  0.7620750309991919  0.7764697497089585  1.0000
  H   H13       1.0  0.3666990485639374  0.9227524875695251  0.2684524888011666  1.0000
  H   H14       1.0  0.8666990242816084  0.0772478371104199  0.2315569790782703  1.0000
  H   H15       1.0  0.6333010961756357  0.0772494179780381  0.731556977768669  1.0000
  H   H16       1.0  0.13330192401555507  0.9227514272401648  0.7684508998149155  1.0000
  H   H17       1.0  0.45522926321621066  0.43889021406050693  0.5808835018308471  1.0000
  H   H18       1.0  0.9552291272310212  0.5611057655125863  0.9191115903020872  1.0000
  H   H19       1.0  0.5447684707998732  0.5611024042995467  0.4191100190929403  1.0000
  H   H20       1.0  0.04477262459210608  0.4388842089656394  0.0808796936507292  1.0000
  H   H21       1.0  0.5902673663004591  0.438602847623642  0.7001779226238939  1.0000
  H   H22       1.0  0.09027168425539858  0.5613979038949067  0.7998220592956855  1.0000
  H   H23       1.0  0.40972876060280317  0.5613930870115169  0.2998211540351718  1.0000
  H   H24       1.0  0.9097324782699302  0.43859604850425177  0.2001755019657665  1.0000
  H   H25       1.0  0.8107637458193436  0.30198124401329096  0.5338908537036815  1.0000
  H   H26       1.0  0.31076164335328826  0.6980211376156404  0.9661091567853504  1.0000
  H   H27       1.0  0.18923961313986834  0.6980146718170135  0.4661036778766174  1.0000
  H   H28       1.0  0.6892312692966269  0.30197741940475  0.0338869624599312  1.0000
  H   H29       1.0  0.6834655401285659  0.2937105531236811  0.4085157908102843  1.0000
  H   H30       1.0  0.1834605578491235  0.7062887971785372  0.09148017562482379  1.0000
  H   H31       1.0  0.3165394259504665  0.706283377778881  0.5914765760664125  1.0000
  H   H32       1.0  0.8165275334203483  0.2937117205829836  0.9085122646362151  1.0000
  H   H33       1.0  0.9913033276622014  0.4079205650389214  0.44990383870747763  1.0000
  H   H34       1.0  0.4912980023285626  0.5920792571313954  0.0501006639013326  1.0000
  H   H35       1.0  0.008705656257902199  0.5920806627491118  0.5501010105152346  1.0000
  H   H36       1.0  0.5086957139022983  0.40791868661524694  0.9499064211442985  1.0000
  H   H37       1.0  0.8137426579860971  0.48513106565405906  0.5015297037313857  1.0000
  H   H38       1.0  0.3137459695497355  0.5148700023212811  0.9984701694289626  1.0000
  H   H39       1.0  0.18625668317629615  0.514870804960026  0.49847132196066474  1.0000
  H   H40       1.0  0.6862598001115214  0.4851266047123132  0.001532226003135393  1.0000
  H   H41       1.0  0.8497566955787831  0.5700764286491166  0.43890984153825496  1.0000
  H   H42       1.0  0.3497599620132944  0.42992381003346486  0.06108465150616381  1.0000
  H   H43       1.0  0.15023943132634088  0.42992542583979804  0.5610872883606106  1.0000
  H   H44       1.0  0.6502433969554386  0.5700747577429724  0.9389140649446189  1.0000
  H   H45       1.0  0.24248118757154194  0.3054923654760487  0.1553227912083912  1.0000
  H   H46       1.0  0.7424922802973624  0.6945083870294227  0.34467346253330794  1.0000
  H   H47       1.0  0.7575093143887983  0.6945088166173009  0.8446710199222879  1.0000
  H   H48       1.0  0.25752554279209505  0.30549213612762577  0.655320276360122  1.0000
  H   H49       1.0  0.13913881293447616  0.2975718713677153  0.5100547055009628  1.0000
  H   H50       1.0  0.6391359546281448  0.7024401548749495  0.9899472725130494  1.0000
  H   H51       1.0  0.8608613317930034  0.702438549549676  0.48994336391661625  1.0000
  H   H52       1.0  0.36085856517173187  0.297568977685401  0.010057794637511098  1.0000
  H   H53       1.0  0.9922841103956157  0.20559737162400185  0.3396944505740366  1.0000
  H   H54       1.0  0.4922899658785055  0.7944077047914534  0.1603060874954565  1.0000
  H   H55       1.0  0.007712016514552999  0.7944071240624667  0.6603042670024452  1.0000
  H   H56       1.0  0.5077125895350392  0.20559679627390182  0.8396939286852357  1.0000
  H   H57       1.0  0.20478054244846786  0.4060366811052488  0.1640121316264  1.0000
  H   H58       1.0  0.7047841964392061  0.5939647006948122  0.3359899468705407  1.0000
  H   H59       1.0  0.7952155844644793  0.5939651921936858  0.835989543359979  1.0000
  H   H60       1.0  0.29522398391601706  0.40603652171835597  0.6640136037547678  1.0000
  H   H61       1.0  0.2604068316954126  0.3176583285351313  0.4821972596477266  1.0000
  H   H62       1.0  0.7604055300062953  0.6823483882248456  0.017801635764705316  1.0000
  H   H63       1.0  0.7395933130216719  0.6823454947626645  0.5177981391722355  1.0000
  H   H64       1.0  0.23959059690723447  0.3176561155230573  0.9821990297064288  1.0000
  H   H65       1.0  0.9290068712415261  0.3003529649718787  0.3520998094478287  1.0000
  H   H66       1.0  0.42900448182597006  0.6996533309217698  0.14789877220317044  1.0000
  H   H67       1.0  0.0709956841718977  0.6996535075866319  0.6478991249473153  1.0000
  H   H68       1.0  0.5709908415252086  0.300352488050045  0.8521013885093679  1.0000
  C   C1        1.0  0.21484260623214615  0.0471052951491231  0.2618025729703461  1.0000
  C   C2        1.0  0.7148425376405071  0.9528928089259666  0.23819981780686558  1.0000
  C   C3        1.0  0.7851559313647981  0.9528939396411291  0.7381981636395524  1.0000
  C   C4        1.0  0.2851584106503607  0.0471057830330679  0.7618047423249408  1.0000
  C   C5        1.0  0.19656236278940034  0.9537511416502867  0.26727916294022697  1.0000
  C   C6        1.0  0.6965630915830514  0.046248281102485606  0.232729821144595  1.0000
  C   C7        1.0  0.803437781945412  0.04624943792421019  0.7327282111943632  1.0000
  C   C8        1.0  0.3034418745224343  0.9537516287710444  0.7672748835326645  1.0000
  C   C9        1.0  0.09340819588471308  0.9170679471551965  0.2703286951098605  1.0000
  C   C10       1.0  0.5934089787002816  0.0829326112620663  0.2296717431303534  1.0000
  C   C11       1.0  0.906590341716864  0.08293458510128462  0.729673052149728  1.0000
  C   C12       1.0  0.4065951838301415  0.9170692405454375  0.7703247374800102  1.0000
  C   C13       1.0  0.0827753800539099  0.826764971657006  0.27292006227260396  1.0000
  C   C14       1.0  0.5827819377132003  0.1732355608310883  0.2270777530631634  1.0000
  C   C15       1.0  0.917215121917195  0.17323689357647953  0.7270796648123226  1.0000
  C   C16       1.0  0.4172262426307184  0.8267676062037739  0.7729182227944378  1.0000
  C   C17       1.0  0.26754736221037934  0.8079497284500478  0.273670808155302  1.0000
  C   C18       1.0  0.767553950389967  0.19205108940776944  0.2263326484911943  1.0000
  C   C19       1.0  0.7324431397700836  0.1920515020119353  0.7263346903432789  1.0000
  C   C20       1.0  0.23245583709083203  0.8079514482310302  0.7736703973784387  1.0000
  C   C21       1.0  0.28522098999645346  0.8968341303421282  0.2695285108266035  1.0000
  C   C22       1.0  0.7852210075995812  0.1031660806663197  0.23048140927263464  1.0000
  C   C23       1.0  0.7147783511835397  0.10316646804181322  0.7304834083945337  1.0000
  C   C24       1.0  0.21478154782021616  0.8968338345797876  0.7695245939981419  1.0000
  C   C25       1.0  0.48138728925699326  0.36989713494489246  0.4132666812293238  1.0000
  C   C26       1.0  0.9813845254039534  0.6300986843983836  0.0867289228991552  1.0000
  C   C27       1.0  0.5186160696960513  0.6300961370007061  0.5867256133751368  1.0000
  C   C28       1.0  0.018612405049900395  0.3698932776924337  0.9132651750515848  1.0000
  C   C29       1.0  0.5592044154370583  0.3680730814856119  0.48401967540365126  1.0000
  C   C30       1.0  0.0592030607578025  0.6319241225561072  0.015977721557803193  1.0000
  C   C31       1.0  0.44079813995852385  0.6319208601638168  0.5159752886629931  1.0000
  C   C32       1.0  0.9407930661324141  0.3680658653538345  0.9840168088792893  1.0000
  C   C33       1.0  0.5331731829168973  0.4079260367255486  0.5679628504514228  1.0000
  C   C34       1.0  0.03317318773164859  0.5920693508587151  0.9320338180087618  1.0000
  C   C35       1.0  0.46682776535173787  0.5920705299974074  0.4320298055016067  1.0000
  C   C36       1.0  0.966827760530492  0.4079179985442636  0.06795977405476349  1.0000
  C   C37       1.0  0.6085129198471221  0.40796692132148143  0.6344870340218449  1.0000
  C   C38       1.0  0.10851591026677446  0.5920292435618536  0.8655124861362467  1.0000
  C   C39       1.0  0.39148561774295126  0.592029010628252  0.3655113933419116  1.0000
  C   C40       1.0  0.8914866451288077  0.407964698087568  0.13448247793039772  1.0000
  C   C41       1.0  0.7308253734870147  0.33120423496433915  0.5417919539268325  1.0000
  C   C42       1.0  0.23082319247773594  0.6688006602665127  0.958206204394358  1.0000
  C   C43       1.0  0.2691763783512613  0.6687936631065552  0.4582040930588391  1.0000
  C   C44       1.0  0.7691705237376425  0.33120053257771787  0.04179020393308261  1.0000
  C   C45       1.0  0.6598554007480573  0.32739619042941115  0.4716926708512972  1.0000
  C   C46       1.0  0.15985255283846558  0.672605103024182  0.028303455289268694  1.0000
  C   C47       1.0  0.3401471546430485  0.6725977404714314  0.5282996960224864  1.0000
  C   C48       1.0  0.8401387526818238  0.3273914717533232  0.9716911485467463  1.0000
  C   C49       1.0  0.042352080486963886  0.5179907842071572  0.3838877987880878  1.0000
  C   C50       1.0  0.5423499607229444  0.48201762757469885  0.11611792828558272  1.0000
  C   C51       1.0  0.9576496713729126  0.48201899656559277  0.6161147434486552  1.0000
  C   C52       1.0  0.45764938045456194  0.517986908421264  0.883890528768035  1.0000
  C   C53       1.0  0.9792403170191192  0.4794140773568856  0.4550657155120774  1.0000
  C   C54       1.0  0.4792396695915712  0.5205863865454178  0.0449388301947735  1.0000
  C   C55       1.0  0.020760631273738298  0.5205884629627492  0.5449379796450771  1.0000
  C   C56       1.0  0.5207588680162586  0.4794115598918084  0.9550689041549063  1.0000
  C   C57       1.0  0.859932959329619  0.4995921634000808  0.4438195565415057  1.0000
  C   C58       1.0  0.3599363328694096  0.5004127293774588  0.056181959991541006  1.0000
  C   C59       1.0  0.14006557827730148  0.5004143252784417  0.5561832736380836  1.0000
  C   C60       1.0  0.6400678296751252  0.4995898136316228  0.9438223844677153  1.0000
  C   C61       1.0  0.8053981986484401  0.4487917662296966  0.3659600563654379  1.0000
  C   C62       1.0  0.3053979112481712  0.5512137156814844  0.134043348419894  1.0000
  C   C63       1.0  0.19460274964905003  0.5512140715561671  0.6340446494414138  1.0000
  C   C64       1.0  0.6946006263615202  0.4487901506094972  0.8659624391695928  1.0000
  N   N1        1.0  0.19731462441914258  0.18476918618279833  0.2670637516803893  1.0000
  N   N2        1.0  0.6973167063294596  0.8152302027123429  0.23293679334882716  1.0000
  N   N3        1.0  0.8026839131747323  0.8152313557705  0.732934532277234  1.0000
  N   N4        1.0  0.3026850455198725  0.18476969372316884  0.7670646648334624  1.0000
  N   N5        1.0  0.29824524542115677  0.16527722724129748  0.24150227088108517  1.0000
  N   N6        1.0  0.7982418245085866  0.8347216602686628  0.2585016924924233  1.0000
  N   N7        1.0  0.7017589171165142  0.8347220129272584  0.7584997643320435  1.0000
  N   N8        1.0  0.20175671309547735  0.1652769343757967  0.7415035169346851  1.0000
  N   N9        1.0  0.31108046940515516  0.0787606991017498  0.23800073211957337  1.0000
  N   N10       1.0  0.8110812304944374  0.9212395273399353  0.2620040561435317  1.0000
  N   N11       1.0  0.6889172646368493  0.9212405259911094  0.7620034677913168  1.0000
  N   N12       1.0  0.18891891423714208  0.07875907267996499  0.7380024518819539  1.0000
  N   N13       1.0  0.1423412556940988  0.1124148714574034  0.2800716481140526  1.0000
  N   N14       1.0  0.6423402059002683  0.8875844254923991  0.21992551745115924  1.0000
  N   N15       1.0  0.8576596925828213  0.8875863160176963  0.7199234616256975  1.0000
  N   N16       1.0  0.3576607423819523  0.11241546019395089  0.7800733435372962  1.0000
  N   N17       1.0  0.16822859650361718  0.7725448917015642  0.2741503085827048  1.0000
  N   N18       1.0  0.6682352453025899  0.22745644596231074  0.2258536294009588  1.0000
  N   N19       1.0  0.8317627090390686  0.2274569950296623  0.7258546128889307  1.0000
  N   N20       1.0  0.33177534574155476  0.772546750632884  0.7741494887399369  1.0000
  N   N21       1.0  0.3321471142798345  0.373716404348002  0.3470171506605695  1.0000
  N   N22       1.0  0.8321477855989625  0.6262805251540229  0.1529795356281767  1.0000
  N   N23       1.0  0.6678522268712256  0.6262821526769784  0.6529789685924855  1.0000
  N   N24       1.0  0.16784914486458288  0.3737173756005774  0.8470171606498837  1.0000
  N   N25       1.0  0.4076867236191787  0.3761443548175691  0.28735648229336164  1.0000
  N   N26       1.0  0.9076859885381267  0.6238513646498022  0.212640242167673  1.0000
  N   N27       1.0  0.5923126175296359  0.6238541968331291  0.7126383383632559  1.0000
  N   N28       1.0  0.0923133526109865  0.3761485022253765  0.7873540737313222  1.0000
  N   N29       1.0  0.5030278907000678  0.37370739151536014  0.3274625288262811  1.0000
  N   N30       1.0  0.003030278294993099  0.6262870964801691  0.1725344431792024  1.0000
  N   N31       1.0  0.4969674326294964  0.6262865447546063  0.672531136635186  1.0000
  N   N32       1.0  0.9969722771007524  0.3737101318868952  0.8274589343442784  1.0000
  N   N33       1.0  0.3747850850862307  0.37024354413393473  0.4264838669250324  1.0000
  N   N34       1.0  0.8747854894613666  0.629754099840632  0.07351169616963202  1.0000
  N   N35       1.0  0.6252142560601895  0.6297517154248242  0.5735112416783181  1.0000
  N   N36       1.0  0.1252106374386628  0.3702398552399302  0.9264865143803221  1.0000
  N   N37       1.0  0.7066206325235669  0.3714974643571622  0.6218264432743084  1.0000
  N   N38       1.0  0.20662051633903633  0.6285041122779235  0.8781738923445346  1.0000
  N   N39       1.0  0.29337951218813874  0.6284971443077937  0.3781705409543719  1.0000
  N   N40       1.0  0.7933772176874428  0.3714951037017329  0.1218222991768698  1.0000
  O   O1        1.0  0.09498529101689707  0.46798273048028  0.32653556559704106  1.0000
  O   O2        1.0  0.5949834562533522  0.5320217839222537  0.1734653100764518  1.0000
  O   O3        1.0  0.9050172643946934  0.5320230804352661  0.6734626472295915  1.0000
  O   O4        1.0  0.40501106354089694  0.4679820769915679  0.8265391789117373  1.0000
  O   O5        1.0  0.0402628911091867  0.6010905563287992  0.38413109794794315  1.0000
  O   O6        1.0  0.5402614279205122  0.3989125808234348  0.1158740459108358  1.0000
  O   O7        1.0  0.9597372536220161  0.39891395817056713  0.6158721647209191  1.0000
  O   O8        1.0  0.45974353818609603  0.6010873317372472  0.8841313080646458  1.0000
  O   O9        1.0  0.8354039110306174  0.3724770089273832  0.3350420195111212  1.0000
  O   O10       1.0  0.3353950248864165  0.6275304792604783  0.16495842816119216  1.0000
  O   O11       1.0  0.16460426932982125  0.6275301414009817  0.6649615322486396  1.0000
  O   O12       1.0  0.6645954770859674  0.37247467537778794  0.8350403616787929  1.0000
  O   O13       1.0  0.7234251453093135  0.4856653845900212  0.3347897583046233  1.0000
  O   O14       1.0  0.2234265072756186  0.5143300932323953  0.16521171485428712  1.0000
  O   O15       1.0  0.27657419584786413  0.514330558108874  0.6652112662529674  1.0000
  O   O16       1.0  0.7765736374490897  0.48566520394699353  0.8347924839250709  1.0000
  O   O17       1.0  0.18070334780400535  0.3440391028330154  0.1682657629183524  1.0000
  O   O18       1.0  0.6807119175881553  0.6559629008546253  0.3317356803188929  1.0000
  O   O19       1.0  0.8192887612901457  0.6559627570273179  0.8317326655720834  1.0000
  O   O20       1.0  0.31930108414390895  0.3440402957422819  0.6682674378249234  1.0000
  O   O21       1.0  0.1941353554309302  0.28364459015892146  0.4658047047501768  1.0000
  O   O22       1.0  0.6941341698910221  0.7163594149457283  0.03419828637181871  1.0000
  O   O23       1.0  0.8058647892922863  0.7163566188127818  0.5341955993743284  1.0000
  O   O24       1.0  0.30586034990434285  0.2836444486552452  0.9658068519145859  1.0000
  O   O25       1.0  0.9950364109225233  0.26698401336939537  0.3655959376092853  1.0000
  O   O26       1.0  0.49503724807301797  0.7330210696601752  0.1344052564096003  1.0000
  O   O27       1.0  0.0049629302404526  0.7330204876936576  0.6344040785675205  1.0000
  O   O28       1.0  0.5049612895322041  0.2669827858822274  0.8655979339870186  1.0000
