data_image0
_chemical_formula_structural       Na2Sm2H44C40O30
_chemical_formula_sum              "Na2 Sm2 H44 C40 O30"
_cell_length_a       8.320095051052103
_cell_length_b       12.822800749208941
_cell_length_c       11.797657451437287
_cell_angle_alpha    68.85278946871237
_cell_angle_beta     82.50891820299137
_cell_angle_gamma    83.42819274570871

_space_group_name_H-M_alt    "P 1"
_space_group_IT_number       1

loop_
  _space_group_symop_operation_xyz
  'x, y, z'

loop_
  _atom_site_type_symbol
  _atom_site_label
  _atom_site_symmetry_multiplicity
  _atom_site_fract_x
  _atom_site_fract_y
  _atom_site_fract_z
  _atom_site_occupancy
  Na  Na1       1.0  0.3102681652034747  0.5449284210656274  0.945357980274359  1.0000
  Na  Na2       1.0  0.68972883079676  0.4550708965595194  0.05464326872485253  1.0000
  Sm  Sm1       1.0  0.3396382702055973  0.2709490613244868  0.2227911943212106  1.0000
  Sm  Sm2       1.0  0.6603599657915141  0.7290494888357131  0.7772092946172078  1.0000
  H   H1        1.0  0.8172579667415363  0.3158337770199609  0.29166463727214875  1.0000
  H   H2        1.0  0.1827427775405752  0.6841624735665947  0.7083337133608864  1.0000
  H   H3        1.0  0.8801510443763759  0.17023618579176514  0.33115279595267566  1.0000
  H   H4        1.0  0.11984837503512584  0.8297631261909545  0.6688481692925166  1.0000
  H   H5        1.0  0.4593369784165304  0.3694756151214379  0.509640907373061  1.0000
  H   H6        1.0  0.5406563020420095  0.6305245463735503  0.49036051846321255  1.0000
  H   H7        1.0  0.3541038610593077  0.4985314750372751  0.42642208583502855  1.0000
  H   H8        1.0  0.6458953215267301  0.5014688846390101  0.5735760296829753  1.0000
  H   H9        1.0  0.21287565073854614  0.4108667161754696  0.6064356256608221  1.0000
  H   H10       1.0  0.7871212692858265  0.5891319783308547  0.39356327119911316  1.0000
  H   H11       1.0  0.9458564044178814  0.38567354937895015  0.7293586601920834  1.0000
  H   H12       1.0  0.05414309986735328  0.6143234686725594  0.27064045050174457  1.0000
  H   H13       1.0  0.7250651456251588  0.3088712575319619  0.6689983333420741  1.0000
  H   H14       1.0  0.2749331186631991  0.691126527984494  0.331001537412554  1.0000
  H   H15       1.0  0.7705412475092999  0.25651249601779824  0.4824900325825324  1.0000
  H   H16       1.0  0.22945796336798444  0.7434870990147503  0.5175074647516807  1.0000
  H   H17       1.0  0.36660928680002064  0.2475622803660684  0.8597422490387672  1.0000
  H   H18       1.0  0.6333927690059015  0.7524352843993826  0.1402597970180608  1.0000
  H   H19       1.0  0.5507824347160551  0.16338241078560148  0.9056502551089025  1.0000
  H   H20       1.0  0.44922601626166175  0.8366154091803256  0.09435776859087489  1.0000
  H   H21       1.0  0.24187122119032267  0.9191681420389134  0.3990411848831099  1.0000
  H   H22       1.0  0.7581172079967544  0.08083348926594171  0.600962911806512  1.0000
  H   H23       1.0  0.05916726414147179  0.00230440230025411  0.4145073513599015  1.0000
  H   H24       1.0  0.9408254622413421  0.9976986899880633  0.5854881262280357  1.0000
  H   H25       1.0  0.03828745301876068  0.9049226471257372  0.28820065814101525  1.0000
  H   H26       1.0  0.9617188716916658  0.09507714326690589  0.7117933869979183  1.0000
  H   H27       1.0  0.0329912588754624  0.8218781095255566  0.1289594569747976  1.0000
  H   H28       1.0  0.9670173283966291  0.1781233460370544  0.8710338068222043  1.0000
  H   H29       1.0  0.1883455442615726  0.9018300320295582  0.9270209178780319  1.0000
  H   H30       1.0  0.8116731015904647  0.0981709056261479  0.07297727974709999  1.0000
  H   H31       1.0  0.3506897301104175  0.06401723214167285  0.8825231027133285  1.0000
  H   H32       1.0  0.6493318366461125  0.9359822983657583  0.11748199577369414  1.0000
  H   H33       1.0  0.09946076329250533  0.4898683644528532  0.15094263326245988  1.0000
  H   H34       1.0  0.9005323846076861  0.5101327032107863  0.8490576768021113  1.0000
  H   H35       1.0  0.2720054664242538  0.5322722542697492  0.1623963997965561  1.0000
  H   H36       1.0  0.7279902374455531  0.46772790158281213  0.8376047422856983  1.0000
  H   H37       1.0  0.6349811395038643  0.10144889375492032  0.2994044719893409  1.0000
  H   H38       1.0  0.36501254307866304  0.8985470907090873  0.700598197816724  1.0000
  H   H39       1.0  0.6905892931132909  0.20192977915998267  0.17650330837474118  1.0000
  H   H40       1.0  0.309405468616525  0.7980671086514665  0.8234981037826115  1.0000
  H   H41       1.0  0.19082965197289067  0.4674733015650576  0.8030998113934726  1.0000
  H   H42       1.0  0.8091686927402648  0.5325236485452011  0.19690030815511508  1.0000
  H   H43       1.0  0.11179175384681626  0.3944205721463519  0.939261855933516  1.0000
  H   H44       1.0  0.8882029601983704  0.6055749279025308  0.060736585900777094  1.0000
  C   C1        1.0  0.01882161319862519  0.30100522692103493  0.4419615299703422  1.0000
  C   C2        1.0  0.9811788615178472  0.6989942945278501  0.5580366924646042  1.0000
  C   C3        1.0  0.9195574369297503  0.2559301894034435  0.2837181924914205  1.0000
  C   C4        1.0  0.08044185437233149  0.7440685702229148  0.7162795536367524  1.0000
  C   C5        1.0  0.9633677861083925  0.2777683662212027  0.14844602399882237  1.0000
  C   C6        1.0  0.03662913391598005  0.7222303282851219  0.8515528728611129  1.0000
  C   C7        1.0  0.1442112709450711  0.34467739202543873  0.47684529387728236  1.0000
  C   C8        1.0  0.8557878550584803  0.6553244969383346  0.5231540580082877  1.0000
  C   C9        1.0  0.4080530781861995  0.41741643062292166  0.4223964868236081  1.0000
  C   C10       1.0  0.5919439461052818  0.5825821223584884  0.5776041439918129  1.0000
  C   C11       1.0  0.5426783740761465  0.4367304095579955  0.3184409772733403  1.0000
  C   C12       1.0  0.4573174668009443  0.5632673816008877  0.6815591772353071  1.0000
  C   C13       1.0  0.11769493866342629  0.3748604050472864  0.5802925385756906  1.0000
  C   C14       1.0  0.8823017162442354  0.6251401017963403  0.41970412674083935  1.0000
  C   C15       1.0  0.9659560708323554  0.36220651062642883  0.6484131238388354  1.0000
  C   C16       1.0  0.034043433452879385  0.6377905074250734  0.35158598685499953  1.0000
  C   C17       1.0  0.8414550192413586  0.3201011663574392  0.6135097681845493  1.0000
  C   C18       1.0  0.15854445675263654  0.6798966163378071  0.386489960693069  1.0000
  C   C19       1.0  0.8678071406484095  0.28955671163168273  0.5098233191254592  1.0000
  C   C20       1.0  0.13219074980720083  0.7104444862720171  0.49017468947559445  1.0000
  C   C21       1.0  0.288156956241842  0.07629891305278141  0.061344947648585384  1.0000
  C   C22       1.0  0.7118475945022738  0.923700727714085  0.9386612701388158  1.0000
  C   C23       1.0  0.4541487534632154  0.21999023863276082  0.9295803449201328  1.0000
  C   C24       1.0  0.5458568004523201  0.7800096823627246  0.07042226307928687  1.0000
  C   C25       1.0  0.5284079326546233  0.3227037014040592  0.9288742303139653  1.0000
  C   C26       1.0  0.47159414254467436  0.677296015767695  0.07113140424970504  1.0000
  C   C27       1.0  0.20299963618960956  0.028937889475336907  0.17702627134006826  1.0000
  C   C28       1.0  0.7970055483421133  0.9710639853823652  0.8229723711604533  1.0000
  C   C29       1.0  0.19115333196894108  0.004710633318879307  0.38871450645381594  1.0000
  C   C30       1.0  0.8088386519102286  0.9952918249285365  0.6112889158108173  1.0000
  C   C31       1.0  0.2718903224643583  0.04573277190983301  0.4723652837524666  1.0000
  C   C32       1.0  0.7281022341709971  0.9542749082409191  0.5276339029381844  1.0000
  C   C33       1.0  0.10917067281491202  0.93900486484133  0.20051251047894422  1.0000
  C   C34       1.0  0.8908381557315792  0.06099408450269552  0.7994814996999293  1.0000
  C   C35       1.0  0.1053695097110747  0.8927398214734696  0.1102020459961252  1.0000
  C   C36       1.0  0.8946394142046543  0.10726190339568123  0.8897979048288602  1.0000
  C   C37       1.0  0.191921623708545  0.9377846156899993  0.9969464015624679  1.0000
  C   C38       1.0  0.8080966244684334  0.06221904047166761  0.0030484487475562084  1.0000
  C   C39       1.0  0.2827179773259942  0.030284610990705126  0.9715145878568165  1.0000
  C   C40       1.0  0.7172995089539639  0.9697162587237576  0.028484618623067958  1.0000
  O   O1        1.0  0.05517881259677889  0.27320400808316964  0.3377243726179555  1.0000
  O   O2        1.0  0.9448227934005261  0.7267963459506958  0.6622734591460284  1.0000
  O   O3        1.0  0.10880166552935579  0.2976902750767182  0.10234879532563206  1.0000
  O   O4        1.0  0.891198075581343  0.7023056952812257  0.8976531650953914  1.0000
  O   O5        1.0  0.847287624353548  0.2779043137383965  0.08922984124986752  1.0000
  O   O6        1.0  0.15270463354019634  0.7220934151216695  0.910771605867545  1.0000
  O   O7        1.0  0.2871197595978074  0.35691465895993707  0.40154582004120704  1.0000
  O   O8        1.0  0.7128806019536923  0.6430879210639024  0.5984548751288866  1.0000
  O   O9        1.0  0.537740762230534  0.38671347686305796  0.24231978665503104  1.0000
  O   O10       1.0  0.4622621031570303  0.6132882621121641  0.7576808735550028  1.0000
  O   O11       1.0  0.6514909647446457  0.49833140927698594  0.31503397626315893  1.0000
  O   O12       1.0  0.3485159900173612  0.5016660734411504  0.6849683692633803  1.0000
  O   O13       1.0  0.37455403797761727  0.1657516580382961  0.047759675668999114  1.0000
  O   O14       1.0  0.6254504084993897  0.8342481242534918  0.9522448081629161  1.0000
  O   O15       1.0  0.4788347478501438  0.36101300285341864  0.01575651917527668  1.0000
  O   O16       1.0  0.5211655332765587  0.6389904125766108  0.9842439272008504  1.0000
  O   O17       1.0  0.6302934507266823  0.3652911480608908  0.8405540286788236  1.0000
  O   O18       1.0  0.36970345595089066  0.6347119220205004  0.1594511782170471  1.0000
  O   O19       1.0  0.22192574331082676  0.07618739257895871  0.26318882939631283  1.0000
  O   O20       1.0  0.7780749593332388  0.9238139982264003  0.7368164494564482  1.0000
  O   O21       1.0  0.35161810339863553  0.13262113279736815  0.4230178718733909  1.0000
  O   O22       1.0  0.6483664493971446  0.8673830131897233  0.5769859040653813  1.0000
  O   O23       1.0  0.25088943977429773  0.9882797371866515  0.5843176861556855  1.0000
  O   O24       1.0  0.7491028896463802  0.011720073317263815  0.41568821644631965  1.0000
  O   O25       1.0  0.21889724270295827  0.47032975193881316  0.15040507368262002  1.0000
  O   O26       1.0  0.7810972494612117  0.5296704067349581  0.8495962102766512  1.0000
  O   O27       1.0  0.5951119518270005  0.16090378699466618  0.22553783228914878  1.0000
  O   O28       1.0  0.4048827533203222  0.8390946301042562  0.7744648162357777  1.0000
  O   O29       1.0  0.1072026005495204  0.46797086185543446  0.8718912579959194  1.0000
  O   O30       1.0  0.8927921656292241  0.5320245674309874  0.1281080508161239  1.0000
