data_image0
_chemical_formula_structural       U2H24C14N4O14
_chemical_formula_sum              "U2 H24 C14 N4 O14"
_cell_length_a       8.099661563125387
_cell_length_b       8.462604824789434
_cell_length_c       9.19513243025513
_cell_angle_alpha    86.34362429743909
_cell_angle_beta     74.3983789797756
_cell_angle_gamma    69.54290899133754

_space_group_name_H-M_alt    "P 1"
_space_group_IT_number       1

loop_
  _space_group_symop_operation_xyz
  'x, y, z'

loop_
  _atom_site_type_symbol
  _atom_site_label
  _atom_site_symmetry_multiplicity
  _atom_site_fract_x
  _atom_site_fract_y
  _atom_site_fract_z
  _atom_site_occupancy
  U   U1        1.0  0.3054222524266308  0.2057398132048149  0.24608858187674795  1.0000
  U   U2        1.0  0.694578842222185  0.7942594513642547  0.7539117984807007  1.0000
  H   H1        1.0  0.8163529123571888  0.4227348335678728  0.34169227886597753  1.0000
  H   H2        1.0  0.18364642062164885  0.5772656989011581  0.6583073665404129  1.0000
  H   H3        1.0  0.6173388257487531  0.10970268990176629  0.4286234876550594  1.0000
  H   H4        1.0  0.38266225981084995  0.890296578191716  0.5713758071411306  1.0000
  H   H5        1.0  0.8143163677829435  0.1615868564161858  0.419604675266676  1.0000
  H   H6        1.0  0.18568473595508553  0.8384124046284783  0.5803967906520384  1.0000
  H   H7        1.0  0.822741563150437  0.17372431625975082  0.6675002962343443  1.0000
  H   H8        1.0  0.17725953149837892  0.8262749483093189  0.3325000841231045  1.0000
  H   H9        1.0  0.8039423671924196  0.3845144541377364  0.6997982113936915  1.0000
  H   H10       1.0  0.19605744470991482  0.6154848128977689  0.3002024793071314  1.0000
  H   H11       1.0  0.07434646109312841  0.07009865559967207  0.8003797244200187  1.0000
  H   H12       1.0  0.9256528718857095  0.9299018768693587  0.19961992098637185  1.0000
  H   H13       1.0  0.0528573997361406  0.281475567141996  0.8320351714528017  1.0000
  H   H14       1.0  0.9471419423319101  0.7185249618026291  0.1679655595148547  1.0000
  H   H15       1.0  0.8846830959063966  0.1753421900872354  0.05939282472521508  1.0000
  H   H16       1.0  0.11531542416025073  0.8246570829391118  0.940607090757709  1.0000
  H   H17       1.0  0.7343898037426158  0.34783610763643935  0.9872827080187888  1.0000
  H   H18       1.0  0.26561000815971875  0.6521631593990662  0.012717982682033798  1.0000
  H   H19       1.0  0.6328392156732434  0.7123752061410115  0.29762831996009714  1.0000
  H   H20       1.0  0.36716186988635247  0.28762406195247076  0.7023709748360929  1.0000
  H   H21       1.0  0.5013034113003912  0.6254310220936928  0.22184462413905953  1.0000
  H   H22       1.0  0.4986946298427525  0.37456951636618646  0.7781542460494323  1.0000
  H   H23       1.0  0.7308459045430239  0.5973960896122675  0.12028332719442857  1.0000
  H   H24       1.0  0.2691538891808846  0.40260318447205634  0.8797151923838697  1.0000
  C   C1        1.0  0.039233013250154214  0.24620663583335298  0.5349670326966134  1.0000
  C   C2        1.0  0.9607658498944004  0.7537951585447898  0.46503265297661045  1.0000
  C   C3        1.0  0.8993714569862589  0.2533210443348465  0.6816774467583926  1.0000
  C   C4        1.0  0.10062916782827366  0.7466794821433352  0.3183229738658895  1.0000
  C   C5        1.0  0.9776701611878662  0.20043121675602288  0.818389295061195  1.0000
  C   C6        1.0  0.022329641625255147  0.7995680538038955  0.18161031007836215  1.0000
  C   C7        1.0  0.824988153007034  0.21596636413126186  0.9628272972599633  1.0000
  C   C8        1.0  0.17501036705960626  0.7840329088950923  0.03717261822296078  1.0000
  C   C9        1.0  0.7085585359803371  0.11042215203718092  0.9599908661884344  1.0000
  C   C10       1.0  0.2914404539205861  0.889575859080047  0.040009009027656424  1.0000
  C   C11       1.0  0.6123490647820303  0.3365081686050858  0.33834876267322755  1.0000
  C   C12       1.0  0.38765202077756566  0.6634910994883896  0.6616505321229625  1.0000
  C   C13       1.0  0.6376565836089441  0.6054413169176696  0.23352160957049511  1.0000
  C   C14       1.0  0.362344511039872  0.39455794765139973  0.7664787707869607  1.0000
  N   N1        1.0  0.6967732731445793  0.4507423708027644  0.31302952183087746  1.0000
  N   N2        1.0  0.3032260689234789  0.5492581581418605  0.6869712091367717  1.0000
  N   N3        1.0  0.6885645044038001  0.1897912097056178  0.3995936095815082  1.0000
  N   N4        1.0  0.3114348376642582  0.8102093192390071  0.6004071213861479  1.0000
  O   O1        1.0  0.15549425878764822  0.3878545368736113  0.17299261807931998  1.0000
  O   O2        1.0  0.8445050741911896  0.6121459955954194  0.8270070273270705  1.0000
  O   O3        1.0  0.4484217004645147  0.021654053059997104  0.3231786256055216  1.0000
  O   O4        1.0  0.5515789243500179  0.9783464734181848  0.6768217950187606  1.0000
  O   O5        1.0  0.03266531769769186  0.17272910204261652  0.4180444316070933  1.0000
  O   O6        1.0  0.9673344942046426  0.827270164992889  0.5819562590937296  1.0000
  O   O7        1.0  0.1630105225069087  0.3104052160537947  0.5187294841452826  1.0000
  O   O8        1.0  0.8369883406376458  0.6895965783243554  0.48127020152793415  1.0000
  O   O9        1.0  0.7814937911204889  0.9692089414537649  0.8874866238957324  1.0000
  O   O10       1.0  0.21850778245182306  0.030789057681772588  0.1125148017561557  1.0000
  O   O11       1.0  0.5393449659449487  0.16765037736021776  0.030536485683803953  1.0000
  O   O12       1.0  0.46065482777895983  0.8323488967241062  0.9694620338944873  1.0000
  O   O13       1.0  0.460485743537248  0.3688042565770715  0.3029100720948392  1.0000
  O   O14       1.0  0.539515342022355  0.6311950115164109  0.6970892227013508  1.0000
