data_image0
_chemical_formula_structural       Cu2H24C20S4N4O16
_chemical_formula_sum              "Cu2 H24 C20 S4 N4 O16"
_cell_length_a       8.960128738236554
_cell_length_b       8.953261742530044
_cell_length_c       9.567613422067076
_cell_angle_alpha    114.93734774231842
_cell_angle_beta     90.00044580199224
_cell_angle_gamma    90.00045009568393

_space_group_name_H-M_alt    "P 1"
_space_group_IT_number       1

loop_
  _space_group_symop_operation_xyz
  'x, y, z'

loop_
  _atom_site_type_symbol
  _atom_site_label
  _atom_site_symmetry_multiplicity
  _atom_site_fract_x
  _atom_site_fract_y
  _atom_site_fract_z
  _atom_site_occupancy
  Cu  Cu1       1.0  0.4999993590563108  1.1606368914997023e-06  0.500000568852201  1.0000
  Cu  Cu2       1.0  1.9623069534000003e-06  0.500000329153373  3.048933621420536e-07  1.0000
  H   H1        1.0  0.6447958993335305  0.7476523021858557  0.21412460279187695  1.0000
  H   H2        1.0  0.1447967036604325  0.7523444176586057  0.2858757674196896  1.0000
  H   H3        1.0  0.35520562734191685  0.25235067232290487  0.7858781878780052  1.0000
  H   H4        1.0  0.8552059390609797  0.24765608831826583  0.7141270858755109  1.0000
  H   H5        1.0  0.39231002294064143  0.7699770996507953  0.8384653490588793  1.0000
  H   H6        1.0  0.8923186874679345  0.7300271319991156  0.6615384890079172  1.0000
  H   H7        1.0  0.6076892715947649  0.23002218975840802  0.1615338843740376  1.0000
  H   H8        1.0  0.10767837496787538  0.26997338406837207  0.33846227788045996  1.0000
  H   H9        1.0  0.22380878359262366  0.9742716253844395  0.03364714250247409  1.0000
  H   H10       1.0  0.7238127988597896  0.5257310972404597  0.46635514341361545  1.0000
  H   H11       1.0  0.77619051094279  0.0257276640247639  0.9663520909304498  1.0000
  H   H12       1.0  0.27618537962533907  0.47427066576484134  0.5336429842081858  1.0000
  H   H13       1.0  0.2767832692295258  0.05734226664880991  0.31430205826977453  1.0000
  H   H14       1.0  0.776783759153396  0.44265683047195387  0.1856967295744242  1.0000
  H   H15       1.0  0.7232137931951  0.9426570227452731  0.6856971751490523  1.0000
  H   H16       1.0  0.2232177674979141  0.5573449325560349  0.8143013980685229  1.0000
  H   H17       1.0  0.48046172508164614  0.6806918029015565  0.40196193176441875  1.0000
  H   H18       1.0  0.9804660981562421  0.8193033425076881  0.09803292336972916  1.0000
  H   H19       1.0  0.5195364534009245  0.3193087233019157  0.5980367487594196  1.0000
  H   H20       1.0  0.0195354285011433  0.18069717359004764  0.9019678435468423  1.0000
  H   H21       1.0  0.41350618872098005  0.7815562794394071  0.569136506580563  1.0000
  H   H22       1.0  0.9135125375870317  0.7184458063449172  0.9308603594438696  1.0000
  H   H23       1.0  0.5864931058213045  0.21844424170741666  0.4308632171361212  1.0000
  H   H24       1.0  0.086486756959566  0.2815547097376908  0.0691404074586118  1.0000
  C   C1        1.0  0.5533965444406163  0.7951205706400446  0.16968048464558194  1.0000
  C   C2        1.0  0.0533995778318257  0.7048773943522164  0.3303155392592673  1.0000
  C   C3        1.0  0.4466016340437163  0.20487871369739005  0.8303197919660834  1.0000
  C   C4        1.0  0.9466030648740756  0.29512189001545863  0.6696847373805854  1.0000
  C   C5        1.0  0.5297609786225265  0.7424641586708276  0.012350332435666288  1.0000
  C   C6        1.0  0.029765733609927705  0.7575395940814504  0.48765827629874564  1.0000
  C   C7        1.0  0.4702394319863359  0.2575375891569679  0.9876509247576167  1.0000
  C   C8        1.0  0.9702346769920709  0.2424609220087248  0.5123424906107774  1.0000
  C   C9        1.0  0.41183718546901094  0.8077985851076478  0.9608788972821147  1.0000
  C   C10       1.0  0.911843419135991  0.6922010247115655  0.5391148807271409  1.0000
  C   C11       1.0  0.5881632251261095  0.19220069924490701  0.03912137934364781  1.0000
  C   C12       1.0  0.0881547593689618  0.30780195483872325  0.4608868667358054  1.0000
  C   C13       1.0  0.3180038006384294  0.9218783456241085  0.06912492150289752  1.0000
  C   C14       1.0  0.8180079321431251  0.5781207164075116  0.4308786790978305  1.0000
  C   C15       1.0  0.6819954938969843  0.07812094378509474  0.9308743119300263  1.0000
  C   C16       1.0  0.1819913624129086  0.42188226821454583  0.5691220251863742  1.0000
  C   C17       1.0  0.3464752042959346  0.9686687466051682  0.22473370360950912  1.0000
  C   C18       1.0  0.8464765585537677  0.5313307366876572  0.27526295419569646  1.0000
  C   C19       1.0  0.653522974179765  0.031330547860683615  0.7752644866305689  1.0000
  C   C20       1.0  0.153522736002266  0.4686722479344  0.724737750088501  1.0000
  S   S1        1.0  0.6483571354790172  0.5926594562530597  0.8740798644000168  1.0000
  S   S2        1.0  0.1483823794639676  0.9073366439126291  0.6258980684060379  1.0000
  S   S3        1.0  0.3516421590607095  0.407339828091935  0.12592041221869726  1.0000
  S   S4        1.0  0.8516191471865467  0.09266264044748602  0.3741022082267663  1.0000
  N   N1        1.0  0.4627625577287587  0.9074026081058123  0.2733695673825026  1.0000
  N   N2        1.0  0.9627617563641521  0.5925959774381299  0.22662966463144588  1.0000
  N   N3        1.0  0.5372356207581319  0.09259791303344403  0.7266301563271329  1.0000
  N   N4        1.0  0.0372386542378393  0.4074045386520454  0.7733711022780769  1.0000
  O   O1        1.0  0.7162723985388411  0.49777531731887587  0.9502339471120539  1.0000
  O   O2        1.0  0.2162849010957046  0.0022184699469108005  0.5497662029713767  1.0000
  O   O3        1.0  0.28372577995668274  0.5022251936919633  0.049767862969169206  1.0000
  O   O4        1.0  0.783715509488232  0.9977795877322396  0.4502325401848284  1.0000
  O   O5        1.0  0.7592050718708022  0.6887297729680956  0.8311855051202816  1.0000
  O   O6        1.0  0.25922210614798047  0.811268980009274  0.6688110086224557  1.0000
  O   O7        1.0  0.2407942226577403  0.3112682847034876  0.16881323802887493  1.0000
  O   O8        1.0  0.740778304442827  0.18873030940748955  0.33118822481750965  1.0000
  O   O9        1.0  0.5483174916419457  0.49880847536409345  0.7455655813327768  1.0000
  O   O10       1.0  0.04832499164182019  0.0011953481369531  0.7544383938922794  1.0000
  O   O11       1.0  0.4516795707981842  0.5011920356391784  0.2544362287413976  1.0000
  O   O12       1.0  0.95167765107783  0.998806399705963  0.24556286331509386  1.0000
  O   O13       1.0  0.5014733765496259  0.7767169348915957  0.5019680336926272  1.0000
  O   O14       1.0  0.0014857613708442999  0.7232918795783122  0.9980295754499554  1.0000
  O   O15       1.0  0.4985259179926586  0.22328358625522782  0.49803169002404973  1.0000
  O   O16       1.0  0.9985146492311542  0.2767086365118629  0.001971191459560395  1.0000
