data_image0
_chemical_formula_structural       CuSiH16C24N4F10
_chemical_formula_sum              "Cu1 Si1 H16 C24 N4 F10"
_cell_length_a       8.095682800736885
_cell_length_b       13.553873395444924
_cell_length_c       13.553836741715472
_cell_angle_alpha    89.62194300028202
_cell_angle_beta     85.9237567505079
_cell_angle_gamma    85.92512887005522

_space_group_name_H-M_alt    "P 1"
_space_group_IT_number       1

loop_
  _space_group_symop_operation_xyz
  'x, y, z'

loop_
  _atom_site_type_symbol
  _atom_site_label
  _atom_site_symmetry_multiplicity
  _atom_site_fract_x
  _atom_site_fract_y
  _atom_site_fract_z
  _atom_site_occupancy
  Cu  Cu1       1.0  0.4999922862181806  0.499997532277881  0.49999802242205504  1.0000
  Si  Si1       1.0  0.9999892810730557  0.4999964651940161  0.5000001208430049  1.0000
  H   H1        1.0  0.2619148317662336  0.49999055321428904  0.3434355325730039  1.0000
  H   H2        1.0  0.26833092462882047  0.4998616782166182  0.1621431377946649  1.0000
  H   H3        1.0  0.8048683217173362  0.5000346987833454  0.1575283332906992  1.0000
  H   H4        1.0  0.7762383583591516  0.49997787394053733  0.3404434199162694  1.0000
  H   H5        1.0  0.19512022449562502  0.49997885070381903  0.8424740870632519  1.0000
  H   H6        1.0  0.73165383365901  0.5001319087907206  0.8378506943343709  1.0000
  H   H7        1.0  0.7380674423305679  0.49999268047765366  0.6565569827224991  1.0000
  H   H8        1.0  0.22374041862444471  0.5000134871194247  0.6595609970169534  1.0000
  H   H9        1.0  0.26191576493747704  0.34343233383548005  0.49999953309530554  1.0000
  H   H10       1.0  0.26833445999515965  0.1621396091815086  0.499860636249494  1.0000
  H   H11       1.0  0.804861781867139  0.157529184963856  0.5000339754640066  1.0000
  H   H12       1.0  0.776243018167854  0.340441664940407  0.4999795248051059  1.0000
  H   H13       1.0  0.1951286724093252  0.8424680894704932  0.4999714093656777  1.0000
  H   H14       1.0  0.731662616856049  0.8378547182929026  0.5001282641611908  1.0000
  H   H15       1.0  0.7380762599181312  0.6565627326286999  0.4999917819705004  1.0000
  H   H16       1.0  0.22374871501705243  0.6595556157634163  0.5000176921764279  1.0000
  C   C1        1.0  0.3798825641078026  0.5000024492319781  0.2994787931666494  1.0000
  C   C2        1.0  0.38480391818325915  0.4999331233533085  0.19694227750814264  1.0000
  C   C3        1.0  0.5388209097112482  0.4999855989946554  0.1416598532626452  1.0000
  C   C4        1.0  0.6817445093983993  0.500016641738661  0.195183608038306  1.0000
  C   C5        1.0  0.6670156751509141  0.5000003512449283  0.2978625391701328  1.0000
  C   C6        1.0  0.5579649142961216  0.4999817939200568  0.03407076213748891  1.0000
  C   C7        1.0  0.44202665887558373  0.5000273211774271  0.9659263952991851  1.0000
  C   C8        1.0  0.3182455226137364  0.4999843334108505  0.8048188220945248  1.0000
  C   C9        1.0  0.4611664091159896  0.50001759987574  0.8583375101406858  1.0000
  C   C10       1.0  0.6151814519555076  0.500065638664843  0.8030544520737877  1.0000
  C   C11       1.0  0.6200998084917941  0.4999903992577259  0.700514402264851  1.0000
  C   C12       1.0  0.3329679974476606  0.4999917531347933  0.7021357721816274  1.0000
  C   C13       1.0  0.37988465499481106  0.2994738633642696  0.5000051402889625  1.0000
  C   C14       1.0  0.3848073259390432  0.1969424644263711  0.49993163655575057  1.0000
  C   C15       1.0  0.5388216969592463  0.14165963287283742  0.4999849104924934  1.0000
  C   C16       1.0  0.6817379809760029  0.19518647797443128  0.5000200270157933  1.0000
  C   C17       1.0  0.6670129322883582  0.297860996375384  0.5000042679314376  1.0000
  C   C18       1.0  0.5579669228441945  0.0340705419927545  0.4999797387630736  1.0000
  C   C19       1.0  0.4420287150340982  0.9659252609265823  0.5000143765245966  1.0000
  C   C20       1.0  0.31825099113387983  0.8048130187134532  0.4999817166535295  1.0000
  C   C21       1.0  0.46117400989971463  0.8583354274038727  0.5000128951462912  1.0000
  C   C22       1.0  0.6151891243770821  0.8030570383359219  0.5000602116490427  1.0000
  C   C23       1.0  0.6201115109670499  0.7005175021486921  0.4999882404949005  1.0000
  C   C24       1.0  0.3329778283942417  0.7021340661998893  0.4999922631618148  1.0000
  N   N1        1.0  0.5182155873338559  0.5000435739769671  0.34930457930533987  1.0000
  N   N2        1.0  0.481766675762657  0.4999500106088065  0.65069304328199  1.0000
  N   N3        1.0  0.5182172054365283  0.3493044001150594  0.5000450662529019  1.0000
  N   N4        1.0  0.4817721567955787  0.650692144451682  0.49994856221039197  1.0000
  F   F1        1.0  0.2145155996044822  0.5007099862339928  0.5007195878512221  1.0000
  F   F2        1.0  0.7854607116586511  0.4992813771655237  0.4992827158988788  1.0000
  F   F3        1.0  0.9999961532509546  0.5895642521487829  0.4104428086738779  1.0000
  F   F4        1.0  0.9999750770305627  0.4104279420201637  0.5895555217690712  1.0000
  F   F5        1.0  0.022340751542905917  0.4105740936915226  0.4105649057311068  1.0000
  F   F6        1.0  0.9776378690600683  0.589418749677975  0.5894358202757742  1.0000
  F   F7        1.0  0.7195324602501644  0.49988291482885233  0.9970372188337606  1.0000
  F   F8        1.0  0.28045973214018716  0.5001313764697245  0.0029613601454556975  1.0000
  F   F9        1.0  0.7195332969179518  0.9970390301121556  0.49989448883053467  1.0000
  F   F10       1.0  0.28046348457869646  0.0029575110067482993  0.500101051451054  1.0000
