data_image0
_chemical_formula_structural       Ag2H34C30S2N4O4
_chemical_formula_sum              "Ag2 H34 C30 S2 N4 O4"
_cell_length_a       7.890046903164113
_cell_length_b       8.086478861962997
_cell_length_c       12.451924555435191
_cell_angle_alpha    94.85968224690652
_cell_angle_beta     95.65183307306307
_cell_angle_gamma    107.47409168120498

_space_group_name_H-M_alt    "P 1"
_space_group_IT_number       1

loop_
  _space_group_symop_operation_xyz
  'x, y, z'

loop_
  _atom_site_type_symbol
  _atom_site_label
  _atom_site_symmetry_multiplicity
  _atom_site_fract_x
  _atom_site_fract_y
  _atom_site_fract_z
  _atom_site_occupancy
  Ag  Ag1       1.0  0.49999966390805634  0.4999999987375503  1.3880761428977062e-06  1.0000
  Ag  Ag2       1.0  0.9999982608245972  0.49999931254500035  0.9999989915543352  1.0000
  H   H1        1.0  0.7283300980584781  0.13308908294544614  0.9533315463794523  1.0000
  H   H2        1.0  0.27166992678338875  0.8669140339263849  0.04665997318633689  1.0000
  H   H3        1.0  0.7221021018755991  0.8364183956835874  0.874738569539261  1.0000
  H   H4        1.0  0.2778987381044047  0.1635873731480899  0.1252515657482505  1.0000
  H   H5        1.0  0.0019506995643468182  0.8021068074904748  0.8055956778880429  1.0000
  H   H6        1.0  0.9980531859400016  0.19789229992150584  0.19439817273106294  1.0000
  H   H7        1.0  0.30620978461944043  0.06239185290288421  0.7071845314940005  1.0000
  H   H8        1.0  0.6937942061935941  0.9376071333142872  0.2928141361289889  1.0000
  H   H9        1.0  0.32759097485408256  0.9310595490606276  0.8114183901929551  1.0000
  H   H10       1.0  0.6724134982529362  0.06894460756230812  0.188583065052363  1.0000
  H   H11       1.0  0.4306108017267858  0.1633770595750477  0.8336499328701734  1.0000
  H   H12       1.0  0.5693944819992395  0.8366258237853544  0.16634986967132187  1.0000
  H   H13       1.0  0.09803782832561578  0.1433565468672882  0.4345744962214297  1.0000
  H   H14       1.0  0.9019598478973377  0.8566463635741073  0.5654257272001857  1.0000
  H   H15       1.0  0.8948514231085055  0.21354995170197813  0.5164691332894903  1.0000
  H   H16       1.0  0.10514669578640924  0.7864542443210708  0.4835320036609545  1.0000
  H   H17       1.0  0.9576011099732751  0.432016063262772  0.5821133761204678  1.0000
  H   H18       1.0  0.042392701068081406  0.567986931416094  0.4178842478222792  1.0000
  H   H19       1.0  0.9263542613430573  0.2578102800547768  0.6607905599429174  1.0000
  H   H20       1.0  0.07364382244896457  0.742193956366542  0.33920897133956635  1.0000
  H   H21       1.0  0.3001716279874316  0.011270730488369896  0.3491191494344292  1.0000
  H   H22       1.0  0.6998290235540807  0.988725599329868  0.6508815779828722  1.0000
  H   H23       1.0  0.5219713770083627  0.0508086889556765  0.4139680101530274  1.0000
  H   H24       1.0  0.47803024763431495  0.9491901110301909  0.5860385584918149  1.0000
  H   H25       1.0  0.47459061381000817  0.19808167916834665  0.32816443278773727  1.0000
  H   H26       1.0  0.5254143455850623  0.8019158519940817  0.671839807637248  1.0000
  H   H27       1.0  0.6558424821687792  0.3098955158037882  0.5592391202630013  1.0000
  H   H28       1.0  0.34415233655159455  0.6900941875557718  0.44076567970704156  1.0000
  H   H29       1.0  0.7629851460790247  0.4465974086648429  0.7244792194877405  1.0000
  H   H30       1.0  0.23700919034736492  0.5533871242889461  0.2755227928599737  1.0000
  H   H31       1.0  0.6247646370741362  0.4780221411963553  0.8236870321653882  1.0000
  H   H32       1.0  0.37523100981668717  0.5219662687015258  0.1763169179348125  1.0000
  H   H33       1.0  0.6971728820361703  0.6374899131708319  0.7357722378431006  1.0000
  H   H34       1.0  0.30283124015020485  0.36250106100850127  0.2642323156006299  1.0000
  C   C1        1.0  0.8422841663428001  0.1125395268393703  0.9175890457948414  1.0000
  C   C2        1.0  0.15771755446200317  0.887464887933227  0.08240264812476278  1.0000
  C   C3        1.0  0.8412094959660903  0.9478467040884908  0.8751766311724651  1.0000
  C   C4        1.0  0.15879009072293823  0.05215905242407359  0.12481424329005361  1.0000
  C   C5        1.0  0.9952389043113143  0.930584963321472  0.8358896086608851  1.0000
  C   C6        1.0  0.004762899731602497  0.0694154252330748  0.1641058310030772  1.0000
  C   C7        1.0  0.14500629591510963  0.07724976934092352  0.8355239548603208  1.0000
  C   C8        1.0  0.8549989832917927  0.9227491887970984  0.1644755792556225  1.0000
  C   C9        1.0  0.13351879176077117  0.24139097671327645  0.8764089741301291  1.0000
  C   C10       1.0  0.8664869125666428  0.7586092872055232  0.12359067068065598  1.0000
  C   C11       1.0  0.31162558286136016  0.05725687500203949  0.7954154432059255  1.0000
  C   C12       1.0  0.6883792757441467  0.9427447025775704  0.20458424864072094  1.0000
  C   C13       1.0  0.3135030216924192  0.4098877287349437  0.6655028546373885  1.0000
  C   C14       1.0  0.686492976119055  0.5901138636065539  0.3344979972643927  1.0000
  C   C15       1.0  0.17035866976686978  0.31422764914295703  0.584647407893371  1.0000
  C   C16       1.0  0.8296411099880812  0.685777885179121  0.4153522977429276  1.0000
  C   C17       1.0  0.2089539688360559  0.2185803468609961  0.4961775538043796  1.0000
  C   C18       1.0  0.7910445706602472  0.7814212297204507  0.5038234254153551  1.0000
  C   C19       1.0  0.9769445494770749  0.3038404156455313  0.5861424279591176  1.0000
  C   C20       1.0  0.023056961343712577  0.6961663761790433  0.4138590576989571  1.0000
  C   C21       1.0  0.42091354517580715  0.11319283146531939  0.3893108665238572  1.0000
  C   C22       1.0  0.5790833464927941  0.88680346139558  0.6106920784184524  1.0000
  C   C23       1.0  0.3820656183214908  0.21546510133357802  0.4847002603406096  1.0000
  C   C24       1.0  0.6179300025046854  0.7845311994073398  0.5153026209427267  1.0000
  C   C25       1.0  0.519732618910794  0.3112867966465842  0.5659407532244671  1.0000
  C   C26       1.0  0.4802621516743527  0.6887068925327641  0.4340619066691787  1.0000
  C   C27       1.0  0.49069483741615727  0.4068072120638959  0.6571702082042279  1.0000
  C   C28       1.0  0.509303307543412  0.5931890931161162  0.3428319975630814  1.0000
  C   C29       1.0  0.6518620126252372  0.49630688698800896  0.7397121272293389  1.0000
  C   C30       1.0  0.3481340418346619  0.5036828488897953  0.2602911307317157  1.0000
  S   S1        1.0  0.2721336458592773  0.5222091098629563  0.7860718790527558  1.0000
  S   S2        1.0  0.7278580922338519  0.47778729531457026  0.2139275999177315  1.0000
  N   N1        1.0  0.9854264726571883  0.25504971924254954  0.9191550126903608  1.0000
  N   N2        1.0  0.014576641850169315  0.7449545462560891  0.08084236472608099  1.0000
  N   N3        1.0  0.2762383604238676  0.396441256902932  0.8799527399540992  1.0000
  N   N4        1.0  0.7237665157330891  0.6035603004775466  0.12004775472653507  1.0000
  O   O1        1.0  0.09810502873177993  0.548883659635777  0.7644980009374933  1.0000
  O   O2        1.0  0.9018994970295819  0.4511204363897575  0.2355058628097737  1.0000
  O   O3        1.0  0.42401530347908073  0.6794322601415603  0.8203043232060736  1.0000
  O   O4        1.0  0.5759886918530767  0.3205706512979987  0.1796946128424608  1.0000
