data_image0
_chemical_formula_structural       Cu2H16C24N8Cl4
_chemical_formula_sum              "Cu2 H16 C24 N8 Cl4"
_cell_length_a       3.706839433055645
_cell_length_b       12.690677354453657
_cell_length_c       13.346953402963587
_cell_angle_alpha    89.99995345279864
_cell_angle_beta     89.99874011250353
_cell_angle_gamma    94.4661961453975

_space_group_name_H-M_alt    "P 1"
_space_group_IT_number       1

loop_
  _space_group_symop_operation_xyz
  'x, y, z'

loop_
  _atom_site_type_symbol
  _atom_site_label
  _atom_site_symmetry_multiplicity
  _atom_site_fract_x
  _atom_site_fract_y
  _atom_site_fract_z
  _atom_site_occupancy
  Cu  Cu1       1.0  0.5000005671840881  0.500001920828133  0.5000016422825198  1.0000
  Cu  Cu2       1.0  0.49999995473764597  0.999996797490617  0.9999979363095264  1.0000
  H   H1        1.0  0.7262755538171887  0.5911245724339835  0.31049855102301643  1.0000
  H   H2        1.0  0.27374686400919046  0.90886748954086  0.810485693626191  1.0000
  H   H3        1.0  0.2737432500535986  0.40887594508247094  0.6895077304327161  1.0000
  H   H4        1.0  0.726244240685858  0.09112375846110872  0.1895100986255187  1.0000
  H   H5        1.0  0.5443677725443621  0.3458129971967097  0.0848551565500983  1.0000
  H   H6        1.0  0.4556410864226947  0.1541837185795529  0.5848519843955557  1.0000
  H   H7        1.0  0.45561685458110185  0.6541973287270436  0.9151473788236546  1.0000
  H   H8        1.0  0.5443431095818879  0.8458107598347905  0.4151483032820025  1.0000
  H   H9        1.0  0.2760000499826276  0.22922817184432634  0.22000065247013373  1.0000
  H   H10       1.0  0.7239935227259621  0.2707658234100876  0.719995886507256  1.0000
  H   H11       1.0  0.7239965757150202  0.7707780867727082  0.7799996351678686  1.0000
  H   H12       1.0  0.2759948915222947  0.7292254480159598  0.2800036519252131  1.0000
  H   H13       1.0  0.2663743018168958  0.297814527628887  0.39765992107222564  1.0000
  H   H14       1.0  0.7336268336081061  0.20218273889209834  0.8976559073985798  1.0000
  H   H15       1.0  0.7336295228355708  0.7021892905981134  0.6023433634853177  1.0000
  H   H16       1.0  0.2663723418422991  0.7978084388189686  0.1023421325346021  1.0000
  C   C1        1.0  0.6302329441590188  0.5116719842262328  0.2869526544046295  1.0000
  C   C2        1.0  0.3697777743595196  0.9883194699984799  0.7869391954013594  1.0000
  C   C3        1.0  0.3697816415980951  0.4883317402826677  0.7130513793575801  1.0000
  C   C4        1.0  0.6302168923878567  0.0116741246723251  0.2130565968394365  1.0000
  C   C5        1.0  0.6585474518952523  0.4779524504769341  0.18736431930467026  1.0000
  C   C6        1.0  0.34148203260047433  0.022050857739579  0.6873529027270209  1.0000
  C   C7        1.0  0.3414536825054312  0.5220513911803621  0.8126382160257182  1.0000
  C   C8        1.0  0.6585116874636936  0.9779475005587559  0.3126413910451332  1.0000
  C   C9        1.0  0.5293876509106994  0.37443518302961815  0.1616614784691208  1.0000
  C   C10       1.0  0.4706229067134018  0.125562040033472  0.6616492556101292  1.0000
  C   C11       1.0  0.4706098465874931  0.6255734456865555  0.8383380599308126  1.0000
  C   C12       1.0  0.5293708131557722  0.8744363182586457  0.3383495335699465  1.0000
  C   C13       1.0  0.3824919861303044  0.30947030664997754  0.23774444645880521  1.0000
  C   C14       1.0  0.61752600321968  0.19052816884827445  0.7377425887238971  1.0000
  C   C15       1.0  0.6175052207135395  0.690537532031421  0.7622565904115817  1.0000
  C   C16       1.0  0.38248000564853146  0.8094669121646445  0.2622576988925617  1.0000
  C   C17       1.0  0.37321362807658426  0.3469266424439397  0.33577956347120624  1.0000
  C   C18       1.0  0.6267857519769037  0.1530661019336605  0.8357656972787169  1.0000
  C   C19       1.0  0.6267877971084417  0.6530779892522742  0.6642184764501239  1.0000
  C   C20       1.0  0.37321727621267087  0.846928212482041  0.1642300949384534  1.0000
  C   C21       1.0  0.8268001679202966  0.5506902428891535  0.11717102212438849  1.0000
  C   C22       1.0  0.1732410556189876  0.9493078841148446  0.6171616890025361  1.0000
  C   C23       1.0  0.17323048469236108  0.4493204747718521  0.8828300146514965  1.0000
  C   C24       1.0  0.8267269989398753  0.050686734883384994  0.38283260484276843  1.0000
  N   N1        1.0  0.4939572238376611  0.4469261052408768  0.35882339545835157  1.0000
  N   N2        1.0  0.506065166050753  0.05307586833601619  0.8588185272459086  1.0000
  N   N3        1.0  0.5060471818635079  0.5530792930473751  0.64118288603553  1.0000
  N   N4        1.0  0.4939438238860845  0.9469199792865552  0.1411772649539955  1.0000
  N   N5        1.0  0.9771414163616611  0.6121552300950625  0.0635613393863892  1.0000
  N   N6        1.0  0.0228944282334282  0.8878304515537252  0.5635461528739967  1.0000
  N   N7        1.0  0.02288189624466242  0.3878428704626985  0.936446440527071  1.0000
  N   N8        1.0  0.9770733355410923  0.11216337740558659  0.4364526363803662  1.0000
  Cl  Cl1       1.0  0.15188802911113436  0.635668348340559  0.455746764772698  1.0000
  Cl  Cl2       1.0  0.8481246936399314  0.8643312121506952  0.955739730355525  1.0000
  Cl  Cl3       1.0  0.8481339712099824  0.36434085953455764  0.544260265905173  1.0000
  Cl  Cl4       1.0  0.1518759348547007  0.13566391572697256  0.04425606186800481  1.0000
