data_image0
_chemical_formula_structural       Cs4H48C24Cl4O24
_chemical_formula_sum              "Cs4 H48 C24 Cl4 O24"
_cell_length_a       6.750230044064548
_cell_length_b       8.50682805340772
_cell_length_c       18.777242185075206
_cell_angle_alpha    89.99969360741298
_cell_angle_beta     89.99997666780959
_cell_angle_gamma    107.98940086965395

_space_group_name_H-M_alt    "P 1"
_space_group_IT_number       1

loop_
  _space_group_symop_operation_xyz
  'x, y, z'

loop_
  _atom_site_type_symbol
  _atom_site_label
  _atom_site_symmetry_multiplicity
  _atom_site_fract_x
  _atom_site_fract_y
  _atom_site_fract_z
  _atom_site_occupancy
  Cs  Cs1       1.0  0.2413794702018279  0.328753232438352  0.9260764660173063  1.0000
  Cs  Cs2       1.0  0.25862591953338665  0.1712477217090225  0.426076719835251  1.0000
  Cs  Cs3       1.0  0.7586228582689429  0.671249801198641  0.07392318776182087  1.0000
  Cs  Cs4       1.0  0.7413687321783727  0.8287466056444404  0.5739213362763989  1.0000
  H   H1        1.0  0.2649941573801867  0.7974104936083249  0.8434737609834497  1.0000
  H   H2        1.0  0.23500575586688652  0.7025936261587519  0.3434734063012002  1.0000
  H   H3        1.0  0.7350026759151402  0.20259370164292534  0.156527490473195  1.0000
  H   H4        1.0  0.7649917606042534  0.29740442716126136  0.6565251823652358  1.0000
  H   H5        1.0  0.6335741829323566  0.958564637521107  0.9415385288331561  1.0000
  H   H6        1.0  0.8664368535305229  0.5414419965702493  0.4415369659581358  1.0000
  H   H7        1.0  0.3664351291804309  0.0414372530161344  0.05846432030448059  1.0000
  H   H8        1.0  0.13355688066385343  0.45854985917056007  0.5584605575970726  1.0000
  H   H9        1.0  0.5573139631037873  0.15307948713385136  0.8459940900490323  1.0000
  H   H10       1.0  0.9426928504477983  0.3469249449024119  0.3459965508753341  1.0000
  H   H11       1.0  0.44269123012988837  0.8469272724766626  0.15400503116574524  1.0000
  H   H12       1.0  0.057306154509298296  0.6530731269704048  0.6540009726718734  1.0000
  H   H13       1.0  0.6565470533937726  0.0923224892456815  0.7253092395530273  1.0000
  H   H14       1.0  0.8434579183574086  0.4076724170112128  0.22530676524953452  1.0000
  H   H15       1.0  0.34345344003342854  0.9076756011486039  0.274692011911064  1.0000
  H   H16       1.0  0.1565368455633447  0.5923182214743293  0.7746896931880014  1.0000
  H   H17       1.0  0.6021063846233901  0.6982942079991402  0.8263994762107385  1.0000
  H   H18       1.0  0.8979001429385743  0.8017077154049017  0.32639193547169737  1.0000
  H   H19       1.0  0.3979041915608761  0.30171507883369486  0.17360443803674735  1.0000
  H   H20       1.0  0.10210046269938287  0.1982866861249519  0.6736071857587118  1.0000
  H   H21       1.0  0.8653882485778294  0.0634458421233859  0.8268571916229133  1.0000
  H   H22       1.0  0.6346150215299956  0.4365489536757465  0.32685679543023116  1.0000
  H   H23       1.0  0.13462141009786407  0.9365609731142042  0.1731435272702839  1.0000
  H   H24       1.0  0.3653756234957938  0.5634465538517404  0.6731407281205647  1.0000
  H   H25       1.0  0.10077147086471433  0.9001000810721536  0.9148137228739442  1.0000
  H   H26       1.0  0.39923724779774966  0.599908141911527  0.41481307614257895  1.0000
  H   H27       1.0  0.8992326926320114  0.0999078957727306  0.08518965881591359  1.0000
  H   H28       1.0  0.600754885706955  0.40008738415483686  0.5851855125272606  1.0000
  H   H29       1.0  0.33676238531457864  0.20287416854041848  0.7686099377581072  1.0000
  H   H30       1.0  0.16324164033613187  0.2971263542809979  0.2686082889707606  1.0000
  H   H31       1.0  0.663236507435279  0.7971275922037931  0.23138865090363223  1.0000
  H   H32       1.0  0.8367578233840617  0.7028729534068461  0.7313881694557407  1.0000
  H   H33       1.0  0.3947621040553599  0.87991676681321  0.6859068499657466  1.0000
  H   H34       1.0  0.10523953493650139  0.6200832711468108  0.1859056483613415  1.0000
  H   H35       1.0  0.6052433135751796  0.12008261501970448  0.31409546661563326  1.0000
  H   H36       1.0  0.8947575227715419  0.3799135463581749  0.8140940054257937  1.0000
  H   H37       1.0  0.8352660080010564  0.6626551115268099  0.8967255982799427  1.0000
  H   H38       1.0  0.66474761877987  0.8373582875310107  0.39672225132363786  1.0000
  H   H39       1.0  0.16474250874276916  0.3373566098409171  0.10327671828589757  1.0000
  H   H40       1.0  0.335249785485793  0.16264345466387914  0.6032768698977691  1.0000
  H   H41       1.0  0.050143610909330595  0.962919661755251  0.7608879547814239  1.0000
  H   H42       1.0  0.4498566144343812  0.5370769242339647  0.26088692738984776  1.0000
  H   H43       1.0  0.949857453482913  0.0370759755722219  0.23911276412613344  1.0000
  H   H44       1.0  0.5501364365929857  0.4629210734554902  0.7391105961577293  1.0000
  H   H45       1.0  0.36204235943317536  0.7311715656568438  0.9858589652739694  1.0000
  H   H46       1.0  0.13795065777503615  0.7688306183120942  0.48585472668825236  1.0000
  H   H47       1.0  0.6379723356566201  0.2688328521549365  0.014140688502841696  1.0000
  H   H48       1.0  0.8620415879386696  0.23116121888635624  0.5141422643074803  1.0000
  C   C1        1.0  0.36756002460244713  0.9055045142219524  0.8719149650363104  1.0000
  C   C2        1.0  0.13244313618615414  0.5945005065940093  0.3719132921045086  1.0000
  C   C3        1.0  0.6324451686206629  0.09450224536767139  0.12808735153588197  1.0000
  C   C4        1.0  0.8675504858080244  0.40549503803211456  0.6280831663269665  1.0000
  C   C5        1.0  0.5422776963340111  0.8551291928298781  0.9075549710006923  1.0000
  C   C6        1.0  0.957728752991322  0.6448729052736722  0.4075515437180498  1.0000
  C   C7        1.0  0.4577236024068511  0.14487505805541898  0.09244681301524338  1.0000
  C   C8        1.0  0.0422703641712516  0.35512147772426766  0.5924454472741799  1.0000
  C   C9        1.0  0.45679228819430756  0.043248212611416585  0.8178053213012075  1.0000
  C   C10       1.0  0.043215306422915475  0.45675417569279375  0.31780541598647716  1.0000
  C   C11       1.0  0.5432109577903148  0.9567572926312662  0.18219593015350447  1.0000
  C   C12       1.0  0.9567779690083565  0.5432364442329812  0.6821931726894304  1.0000
  C   C13       1.0  0.5906022726577544  0.9889376843670731  0.7624482961048569  1.0000
  C   C14       1.0  0.9093997538186257  0.5110637836822461  0.2624484025880562  1.0000
  C   C15       1.0  0.4094015442919171  0.0110653678087971  0.2375524227933141  1.0000
  C   C16       1.0  0.09059581540522997  0.4889330152734175  0.7375517837587393  1.0000
  C   C17       1.0  0.6891644416664345  0.8124549493917212  0.8544556328674986  1.0000
  C   C18       1.0  0.8108345700377838  0.6875428255603283  0.35445104801807753  1.0000
  C   C19       1.0  0.310839375281482  0.18754810278066714  0.14554561859024057  1.0000
  C   C20       1.0  0.18915378118486353  0.31244650291638004  0.6455480732192453  1.0000
  C   C21       1.0  0.7714350754952051  0.9502260120390531  0.7997179195099233  1.0000
  C   C22       1.0  0.7285692225966685  0.5497737700305834  0.299714218745862  1.0000
  C   C23       1.0  0.22856965896480114  0.0497795117355437  0.20028546218296833  1.0000
  C   C24       1.0  0.2714239406326513  0.45022053877703166  0.7002838373658802  1.0000
  Cl  Cl1       1.0  0.783615109784506  0.4201913418755865  0.9124305522910843  1.0000
  Cl  Cl2       1.0  0.7163917229439676  0.07981345735002782  0.4124305056737682  1.0000
  Cl  Cl3       1.0  0.21638550579639557  0.5798190509722828  0.08756910147894098  1.0000
  Cl  Cl4       1.0  0.28360945365376017  0.9201784911025684  0.5875696806788113  1.0000
  O   O1        1.0  0.2501752355175881  0.9540866641282904  0.926541675237459  1.0000
  O   O2        1.0  0.2498378709982275  0.5459214611667064  0.42653904718589075  1.0000
  O   O3        1.0  0.7498356872295698  0.04592754740488659  0.07346010876559457  1.0000
  O   O4        1.0  0.7501567807188108  0.4540728661971939  0.5734574112470554  1.0000
  O   O5        1.0  0.2879847298386267  0.0845637210358348  0.7846880610325754  1.0000
  O   O6        1.0  0.2120197603885145  0.4154341384940564  0.2846871775787036  1.0000
  O   O7        1.0  0.7120151926235181  0.9154368224252565  0.21531372298804996  1.0000
  O   O8        1.0  0.7879774095267748  0.5845589901395342  0.7153114110938928  1.0000
  O   O9        1.0  0.4722088304003264  0.8449283351406576  0.7246165147284386  1.0000
  O   O10       1.0  0.027790034262828594  0.6550723954339333  0.22461310298519513  1.0000
  O   O11       1.0  0.5277925805389642  0.15507222685583602  0.27538686697079834  1.0000
  O   O12       1.0  0.972204617441882  0.34492193190559556  0.7753870833647267  1.0000
  O   O13       1.0  0.45824683968852037  0.7107725043263996  0.9503910514144702  1.0000
  O   O14       1.0  0.04174755412564226  0.7892252372301628  0.45038730367697594  1.0000
  O   O15       1.0  0.5417620136752673  0.2892281504236606  0.049608602367314285  1.0000
  O   O16       1.0  0.9582446915827771  0.210766599957843  0.5496112849974677  1.0000
  O   O17       1.0  0.8606970111253743  0.7841754413442031  0.8915447060099311  1.0000
  O   O18       1.0  0.6393122967037712  0.715834280958596  0.3915379367122326  1.0000
  O   O19       1.0  0.13931253533954896  0.2158350627578187  0.10845814311694817  1.0000
  O   O20       1.0  0.36068773797266107  0.2841625736450339  0.6084606519555747  1.0000
  O   O21       1.0  0.9014891476750148  0.9055116549003015  0.7479851325770568  1.0000
  O   O22       1.0  0.5985176643746685  0.5944826801704436  0.24797920243408095  1.0000
  O   O23       1.0  0.09851638215043579  0.0944840380368461  0.2520198468067604  1.0000
  O   O24       1.0  0.4014781392030855  0.40552273235348213  0.752020451342396  1.0000
