data_image0
_chemical_formula_structural       U4H8C8O28
_chemical_formula_sum              "U4 H8 C8 O28"
_cell_length_a       5.4938557892989
_cell_length_b       9.614567217309824
_cell_length_c       12.849435722698386
_cell_angle_alpha    89.9992721721379
_cell_angle_beta     89.99644616341418
_cell_angle_gamma    99.51280371818376

_space_group_name_H-M_alt    "P 1"
_space_group_IT_number       1

loop_
  _space_group_symop_operation_xyz
  'x, y, z'

loop_
  _atom_site_type_symbol
  _atom_site_label
  _atom_site_symmetry_multiplicity
  _atom_site_fract_x
  _atom_site_fract_y
  _atom_site_fract_z
  _atom_site_occupancy
  U   U1        1.0  0.7643990002386046  0.7559534457412407  0.909671945769446  1.0000
  U   U2        1.0  0.23567322138340066  0.7440610444763179  0.4096658789049739  1.0000
  U   U3        1.0  0.2355961538050337  0.24406863410587218  0.09032902191958667  1.0000
  U   U4        1.0  0.7643009140188894  0.25590406029937895  0.5903374238791699  1.0000
  H   H1        1.0  0.7262694789009458  0.634413889439777  0.698115485550744  1.0000
  H   H2        1.0  0.27375778227667513  0.8655819567377916  0.1981072612756023  1.0000
  H   H3        1.0  0.27370676996926596  0.36557228656171487  0.3018831477035846  1.0000
  H   H4        1.0  0.7262942657668249  0.1344151598520043  0.801892149267104  1.0000
  H   H5        1.0  0.9248302334411775  0.7739977342465847  0.6771320937822622  1.0000
  H   H6        1.0  0.07520505154960934  0.7260022043237624  0.1771448420867259  1.0000
  H   H7        1.0  0.07512394903389456  0.226000957994131  0.3228657614777788  1.0000
  H   H8        1.0  0.9248682013562471  0.27399923914635577  0.8228530116976954  1.0000
  C   C1        1.0  0.4978739243091255  0.9647270321629687  0.053322859470206686  1.0000
  C   C2        1.0  0.502130580716667  0.5352695695482054  0.553329973219597  1.0000
  C   C3        1.0  0.5021522208057619  0.03529521567934069  0.9466757731028679  1.0000
  C   C4        1.0  0.4978482581221185  0.4647060907840979  0.44666243406734907  1.0000
  C   C5        1.0  0.007521380732562433  0.5321059347465888  0.0545663253853164  1.0000
  C   C6        1.0  0.9924421369048703  0.9678745973530664  0.5545722201083692  1.0000
  C   C7        1.0  0.9925417046726109  0.4679249371010312  0.9454346414488481  1.0000
  C   C8        1.0  0.0075016793236030955  0.03208613131549499  0.4454248571037951  1.0000
  O   O1        1.0  0.4624296225567265  0.650015913920484  0.9058422349001842  1.0000
  O   O2        1.0  0.5376677075241574  0.8499883454007242  0.40581898778614084  1.0000
  O   O3        1.0  0.5375164018063998  0.3499795745811553  0.09418285901661247  1.0000
  O   O4        1.0  0.46235382714640144  0.1500170289089553  0.5942177788445874  1.0000
  O   O5        1.0  0.06590479393732102  0.8628157026228678  0.9103309927483351  1.0000
  O   O6        1.0  0.9341426604866856  0.6372217908322141  0.4103352951970222  1.0000
  O   O7        1.0  0.9341579150452546  0.1372604461268381  0.08963962248152767  1.0000
  O   O8        1.0  0.06580374714469167  0.36272842253818977  0.5896384346733186  1.0000
  O   O9        1.0  0.6011551714040521  0.8577800890893453  0.06118048732933089  1.0000
  O   O10       1.0  0.3988366996835921  0.6422413827522744  0.5611679763530262  1.0000
  O   O11       1.0  0.39889755369098623  0.1422728391721648  0.9388251490588145  1.0000
  O   O12       1.0  0.601091956827574  0.35771715782898633  0.4388275445617395  1.0000
  O   O13       1.0  0.38279459811687394  0.018592031060300898  0.1251820588601262  1.0000
  O   O14       1.0  0.6171594785679841  0.4814026591516693  0.6251823884989207  1.0000
  O   O15       1.0  0.617191633903175  0.9814373713886789  0.8748157959487484  1.0000
  O   O16       1.0  0.38284344446862667  0.5185878734517572  0.3748107967080613  1.0000
  O   O17       1.0  0.9273422106928493  0.648323354487452  0.06504548820179679  1.0000
  O   O18       1.0  0.07267414564039842  0.8516633371732638  0.5650519536563579  1.0000
  O   O19       1.0  0.0727154064514224  0.3517074879084062  0.9349469180127411  1.0000
  O   O20       1.0  0.9272516301661756  0.14828465766302656  0.4349575757102428  1.0000
  O   O21       1.0  0.09998004012483362  0.46658446549819393  0.12499796635067638  1.0000
  O   O22       1.0  0.899861617647879  0.033391723096919186  0.6249742473070368  1.0000
  O   O23       1.0  0.900057715149032  0.5334536397358745  0.8750138962034056  1.0000
  O   O24       1.0  0.10009428919669003  0.9665732832420132  0.3750127125722996  1.0000
  O   O25       1.0  0.8005069820451708  0.7273054355893647  0.7279499527232929  1.0000
  O   O26       1.0  0.19952794578966848  0.7726955039692311  0.22794545333352534  1.0000
  O   O27       1.0  0.1994709940221  0.2726870675420443  0.27205490645264513  1.0000
  O   O28       1.0  0.8005164264039665  0.22730683577713504  0.7720617397375021  1.0000
