data_image0
_chemical_formula_structural       Al6H68C102N30O28
_chemical_formula_sum              "Al6 H68 C102 N30 O28"
_cell_length_a       14.38278148994578
_cell_length_b       14.307200557569127
_cell_length_c       34.684776983856615
_cell_angle_alpha    90.07789561422759
_cell_angle_beta     89.9523157116588
_cell_angle_gamma    121.1693206163843

_space_group_name_H-M_alt    "P 1"
_space_group_IT_number       1

loop_
  _space_group_symop_operation_xyz
  'x, y, z'

loop_
  _atom_site_type_symbol
  _atom_site_label
  _atom_site_symmetry_multiplicity
  _atom_site_fract_x
  _atom_site_fract_y
  _atom_site_fract_z
  _atom_site_occupancy
  Al  Al1       1.0  0.4814379368960004  0.2248560056273519  0.5015949822967372  1.0000
  Al  Al2       1.0  0.7164997075214926  0.2535662647928446  0.49934132205341797  1.0000
  Al  Al3       1.0  0.7034256638458628  0.4554557944976877  0.5000592972156923  1.0000
  Al  Al4       1.0  0.2158185911343863  0.47954145800671444  0.0027652174461892  1.0000
  Al  Al5       1.0  0.2500515092293439  0.7184409851916697  0.9994510510173598  1.0000
  Al  Al6       1.0  0.4478670432820663  0.7009679325490126  0.0018855517346735996  1.0000
  H   H1        1.0  0.817525106718328  0.2821737398623014  0.6014361228503657  1.0000
  H   H2        1.0  0.38368258011137607  0.0641967022338434  0.4007470776732091  1.0000
  H   H3        1.0  0.6767916614455487  0.5950951141456002  0.4013522215667678  1.0000
  H   H4        1.0  0.8828809188090786  0.2982331694265099  0.39948128059836546  1.0000
  H   H5        1.0  0.8887193486997517  0.30230644567946996  0.6684539214415108  1.0000
  H   H6        1.0  0.6678908911552596  0.6014906708314384  0.6694725019511549  1.0000
  H   H7        1.0  0.3655632013033736  0.014563588704220393  0.6650554794072432  1.0000
  H   H8        1.0  0.30497062511022227  0.8958715495911562  0.1695611512853432  1.0000
  H   H9        1.0  0.6403022025507848  0.6579061934323746  0.16297227784507834  1.0000
  H   H10       1.0  0.9383497512878308  0.3393486299547773  0.1559273861650325  1.0000
  H   H11       1.0  0.04271482987067521  0.6509582623116044  0.6580765091708611  1.0000
  H   H12       1.0  0.6827692175513247  0.5717925745706934  0.5993148565715741  1.0000
  H   H13       1.0  0.33324045308532396  0.34103911422268857  0.6666675861246032  1.0000
  H   H14       1.0  0.6404652057879543  0.9722919711320799  0.6643050072309222  1.0000
  H   H15       1.0  0.6507412728697446  0.04839306341349209  0.15638989395748126  1.0000
  H   H16       1.0  0.3669887531744678  0.3289839476725049  0.16753035952370954  1.0000
  H   H17       1.0  0.0066929073500930575  0.6675840219594705  0.16957831456895175  1.0000
  H   H18       1.0  0.045169051217193605  0.36437635005567864  0.8293817721929526  1.0000
  H   H19       1.0  0.6165259746716599  0.6486020723548833  0.8364371329520351  1.0000
  H   H20       1.0  0.3196705558313368  0.9239055016874217  0.8305637161591262  1.0000
  H   H21       1.0  0.36512365155896004  0.0387565982516946  0.32899966830652255  1.0000
  H   H22       1.0  0.683954229887945  0.6105705151274919  0.3292031739115018  1.0000
  H   H23       1.0  0.40590725973355996  0.0775287483914155  0.5964215763354515  1.0000
  H   H24       1.0  0.9076376170945007  0.3124163478577485  0.32770655451355407  1.0000
  H   H25       1.0  0.12469056980867059  0.7092438036649822  0.893753077374299  1.0000
  H   H26       1.0  0.2672765847899469  0.3866164268799395  0.9008197609696751  1.0000
  H   H27       1.0  0.57226123762031  0.8381125989046934  0.8976629025659049  1.0000
  H   H28       1.0  0.7081849560791865  0.1246825003222582  0.3945760012738687  1.0000
  H   H29       1.0  0.4201252327886919  0.2597792363493454  0.3928642125110783  1.0000
  H   H30       1.0  0.8523614463554167  0.5812132854828533  0.3995058799352121  1.0000
  H   H31       1.0  0.1009013260189704  0.6898957690388627  0.8220207112190038  1.0000
  H   H32       1.0  0.29239995387522555  0.3682314955302317  0.8300786763408183  1.0000
  H   H33       1.0  0.586955775029743  0.8692785898800467  0.8262910481366176  1.0000
  H   H34       1.0  0.2802292638789081  0.8235164219415265  0.1024995578940349  1.0000
  H   H35       1.0  0.6920066696603014  0.10319598476620936  0.3226160931217946  1.0000
  H   H36       1.0  0.4288702499263691  0.2730592458268859  0.3205655896462431  1.0000
  H   H37       1.0  0.8777687277598359  0.5964120588262887  0.3278001491515923  1.0000
  H   H38       1.0  0.04910474748741212  0.719775091000514  0.6001649938547473  1.0000
  H   H39       1.0  0.8770190269414396  0.7092706181863803  0.612731593317754  1.0000
  H   H40       1.0  0.827675845233564  0.6287083225903558  0.56980016732129  1.0000
  H   H41       1.0  0.9360562163869018  0.7665913905073223  0.5667750884919583  1.0000
  H   H42       1.0  0.2546886108354584  0.2706505864286014  0.6107252041832039  1.0000
  H   H43       1.0  0.21066599766345465  0.29776077747413154  0.5509540399765953  1.0000
  H   H44       1.0  0.29821475293918814  0.2505761617288655  0.5347879543431445  1.0000
  H   H45       1.0  0.5714843900201102  0.6830747310290018  0.10028109780224527  1.0000
  H   H46       1.0  0.3495219357368883  0.39331990002168743  0.5403334278562822  1.0000
  H   H47       1.0  0.7342800362750096  0.0010593396654243997  0.6123692558135188  1.0000
  H   H48       1.0  0.7156580558667256  0.9202253218132054  0.555386969150355  1.0000
  H   H49       1.0  0.754417064867887  0.05049199649682379  0.5353042741114605  1.0000
  H   H50       1.0  0.6149763409063453  0.9498736174577117  0.5408766084328817  1.0000
  H   H51       1.0  0.7157576056207869  0.05337104351369958  0.09777470939772569  1.0000
  H   H52       1.0  0.7093305019800907  0.8833190438404797  0.10897501947506068  1.0000
  H   H53       1.0  0.7544702155747414  0.9356646576342128  0.06127395548494969  1.0000
  H   H54       1.0  0.6184363477235519  0.8281838668900148  0.06891095416948899  1.0000
  H   H55       1.0  0.2505185918625443  0.26616496224275477  0.12114444329900916  1.0000
  H   H56       1.0  0.007381750628518103  0.38450821633777105  0.08803975409685448  1.0000
  H   H57       1.0  0.1451986337138891  0.3476984779334131  0.13612170071989024  1.0000
  H   H58       1.0  0.1064890546207806  0.2804035523748496  0.08995560355824489  1.0000
  H   H59       1.0  0.19213942557009037  0.423077590524379  0.09216993083434487  1.0000
  H   H60       1.0  0.07814550109281278  0.7831446345789957  0.12302106901012168  1.0000
  H   H61       1.0  0.9638247038602539  0.7711462707516855  0.07397031910617358  1.0000
  H   H62       1.0  0.999064651265165  0.689387730511591  0.046049048797009086  1.0000
  H   H63       1.0  0.09399627764877035  0.8310549452994138  0.050953573291422985  1.0000
  H   H64       1.0  0.07203178695390729  0.3859090807631133  0.9011848850659658  1.0000
  H   H65       1.0  0.590355860284717  0.6664828992497434  0.9070889627286574  1.0000
  H   H66       1.0  0.30537747264656884  0.8923776898037655  0.9020134535008777  1.0000
  H   H67       1.0  0.3028095119525176  0.09623457029972829  0.48251228504877725  1.0000
  H   H68       1.0  0.1657011798141851  0.30033960550426286  0.016888385794885597  1.0000
  C   C1        1.0  0.5440528562407393  0.4128708093845574  0.5551066924359345  1.0000
  C   C2        1.0  0.49672986498971017  0.020339724243996195  0.20639351017643287  1.0000
  C   C3        1.0  0.6854142809668745  0.9030585551545798  0.08125812770948218  1.0000
  C   C4        1.0  0.17273792128794693  0.3472252926806192  0.10640822438259787  1.0000
  C   C5        1.0  0.030554884000018396  0.7582298544993332  0.0659845881372689  1.0000
  C   C6        1.0  0.5432782184856747  0.4717142713411562  0.20604600069875534  1.0000
  C   C7        1.0  0.9376827252905572  0.48253848383881603  0.20775030377775744  1.0000
  C   C8        1.0  0.061813312421421  0.4392113515309004  0.8437615864077015  1.0000
  C   C9        1.0  0.5406047375916072  0.5913186010832092  0.8508043008803694  1.0000
  C   C10       1.0  0.3752978187151682  0.9062892845268846  0.8456078014828278  1.0000
  C   C11       1.0  0.4396289338442826  0.0569376398733894  0.3436314033708711  1.0000
  C   C12       1.0  0.6261277375636709  0.5342879124154152  0.3433942180401032  1.0000
  C   C13       1.0  0.8969187518644259  0.3716873343670882  0.343746876029236  1.0000
  C   C14       1.0  0.07626369327652327  0.45082234999863147  0.8834544168498579  1.0000
  C   C15       1.0  0.5670020745789727  0.1156067123955395  0.5534676345985047  1.0000
  C   C16       1.0  0.5262325703204594  0.6009715075160783  0.8899532774742196  1.0000
  C   C17       1.0  0.36754087065551033  0.889028199391234  0.8851836482538146  1.0000
  C   C18       1.0  0.44966625407178634  0.070401231506473  0.38332372393088576  1.0000
  C   C19       1.0  0.6217782032464214  0.5258464347910419  0.38332759571997593  1.0000
  C   C20       1.0  0.8833353406116515  0.3639433247663034  0.3835205454286735  1.0000
  C   C21       1.0  0.1064932889220813  0.6339524925404305  0.8793547662281893  1.0000
  C   C22       1.0  0.34344055333012585  0.4425694355297267  0.8863117151435771  1.0000
  C   C23       1.0  0.5185302345116652  0.8584822328943175  0.8827333690386892  1.0000
  C   C24       1.0  0.6333522782162219  0.1051871533026443  0.3798926586338424  1.0000
  C   C25       1.0  0.4767645397378004  0.33605029513538653  0.3784380299438225  1.0000
  C   C26       1.0  0.8387254237613532  0.4294876733401125  0.5529268066989772  1.0000
  C   C27       1.0  0.866587873376872  0.5241907198446185  0.383563895882716  1.0000
  C   C28       1.0  0.09320935635058455  0.6231547966471426  0.8395786086276471  1.0000
  C   C29       1.0  0.3573204948797937  0.43275056100429776  0.8472286330658532  1.0000
  C   C30       1.0  0.5264989789391591  0.8754954816900948  0.8431672063408369  1.0000
  C   C31       1.0  0.6243135108160444  0.09318324604256387  0.3400045587055159  1.0000
  C   C32       1.0  0.48179071417582964  0.343561222184114  0.33847489785686946  1.0000
  C   C33       1.0  0.8802772274026578  0.5323783500239613  0.34382751614134577  1.0000
  C   C34       1.0  0.07164299895671168  0.5259267951720117  0.8213934183458986  1.0000
  C   C35       1.0  0.4559049209054533  0.5073725285010297  0.8290553721038235  1.0000
  C   C36       1.0  0.4538969496724618  0.8980842633925546  0.824173222464907  1.0000
  C   C37       1.0  0.40104282409230047  0.5475592848608883  0.0601440850702843  1.0000
  C   C38       1.0  0.5278574270386399  0.07059766320436718  0.32148199706487895  1.0000
  C   C39       1.0  0.5577675349925071  0.44240477273198303  0.3206008147593948  1.0000
  C   C40       1.0  0.8936363311297837  0.45501514910216667  0.32344663564631293  1.0000
  C   C41       1.0  0.09955101580718656  0.5485581082935553  0.9014866949905664  1.0000
  C   C42       1.0  0.4274764170299576  0.5270912497925622  0.9078872098535412  1.0000
  C   C43       1.0  0.4380878402577294  0.8635853264450687  0.903947910718905  1.0000
  C   C44       1.0  0.5470535270170771  0.09629547165657472  0.4017380685995774  1.0000
  C   C45       1.0  0.5482542485673604  0.4263467599123202  0.40111819991847136  1.0000
  C   C46       1.0  0.8661202381782472  0.43889995683836247  0.4036612767415234  1.0000
  C   C47       1.0  0.5542253757054212  0.4112604715904382  0.44338707897798446  1.0000
  C   C48       1.0  0.10668990279745569  0.5705397577902005  0.05331715618640229  1.0000
  C   C49       1.0  0.5611702355819047  0.12699769293161006  0.4433549813615584  1.0000
  C   C50       1.0  0.8329498888673966  0.4199787544467384  0.4448596293910469  1.0000
  C   C51       1.0  0.4056619073143181  0.5426653712517648  0.9485952907098535  1.0000
  C   C52       1.0  0.12728727633946582  0.5640044214015916  0.9433385855694066  1.0000
  C   C53       1.0  0.4197720085326393  0.8292214780412832  0.9449694129268449  1.0000
  C   C54       1.0  0.886740686884735  0.4540552165575419  0.5921438686514122  1.0000
  C   C55       1.0  0.5180564904277958  0.44149181199991017  0.5927813116476485  1.0000
  C   C56       1.0  0.5441224999252654  0.0598511853374148  0.5912442865283438  1.0000
  C   C57       1.0  0.4505851106685411  0.8917986114061307  0.0917388654330153  1.0000
  C   C58       1.0  0.4293163112396243  0.5234418043866853  0.0986331809784247  1.0000
  C   C59       1.0  0.4230144902626588  0.8427215841632996  0.052650615821065096  1.0000
  C   C60       1.0  0.04642675102939355  0.549978459233138  0.09025495025960588  1.0000
  C   C61       1.0  0.8665605983900588  0.36292891844217207  0.6143443503631898  1.0000
  C   C62       1.0  0.6058270085629898  0.5235292694399191  0.6143055537768659  1.0000
  C   C63       1.0  0.45558082192975746  0.052540787662749694  0.6117594790365641  1.0000
  C   C64       1.0  0.36150001833423295  0.8723454217458763  0.11475468792505687  1.0000
  C   C65       1.0  0.5266910736610909  0.6059178256356859  0.11558045262524531  1.0000
  C   C66       1.0  0.005611504305562668  0.44533107049662835  0.10641020314540127  1.0000
  C   C67       1.0  0.9066019717448552  0.373659298287805  0.6514694520449069  1.0000
  C   C68       1.0  0.5985902089444437  0.539456143578022  0.6532219726480759  1.0000
  C   C69       1.0  0.43389006131467056  0.019298576141579798  0.6497429837936435  1.0000
  C   C70       1.0  0.014466140517612221  0.49371593501341937  0.706606095533118  1.0000
  C   C71       1.0  0.3746868965890896  0.9131817737951947  0.15188013424400984  1.0000
  C   C72       1.0  0.5661588231977744  0.5920201244849821  0.15010338145043525  1.0000
  C   C73       1.0  0.9687574443932615  0.4204185031424855  0.1440008025752917  1.0000
  C   C74       1.0  0.9717457537288039  0.4788414255846262  0.6671598685119732  1.0000
  C   C75       1.0  0.4993267565916497  0.46957506780557867  0.6723011524487104  1.0000
  C   C76       1.0  0.5033160761547177  0.9922311955344011  0.6689258850291891  1.0000
  C   C77       1.0  0.4802530338214693  0.9782790833844003  0.1668032705797344  1.0000
  C   C78       1.0  0.5087352133627405  0.4897100420490972  0.16849766768930144  1.0000
  C   C79       1.0  0.9726404878244991  0.5031881305987155  0.1672843962469415  1.0000
  C   C80       1.0  0.9929143555094057  0.5700008934775269  0.6453425895976393  1.0000
  C   C81       1.0  0.4889923862534501  0.47942680245521524  0.7140634500786118  1.0000
  C   C82       1.0  0.40987600770004207  0.39164862867637146  0.6514883316089309  1.0000
  C   C83       1.0  0.5900543554592587  0.9970128294922201  0.649221205856385  1.0000
  C   C84       1.0  0.5694617967840188  0.9988373221148802  0.14420225880870416  1.0000
  C   C85       1.0  0.41227300685021356  0.4067040816730696  0.15228639862230148  1.0000
  C   C86       1.0  0.008200064306379215  0.605873698360078  0.15149660241116433  1.0000
  C   C87       1.0  0.9505179017221648  0.5608441500690303  0.6081351814198184  1.0000
  C   C88       1.0  0.41441906354561536  0.3786842301511796  0.6111474714598939  1.0000
  C   C89       1.0  0.6112124166950536  0.0271844028046289  0.6099467860330916  1.0000
  C   C90       1.0  0.5578742070774111  0.9555739425970201  0.10691170814321539  1.0000
  C   C91       1.0  0.36776416274254586  0.42152806846570456  0.11835560206946379  1.0000
  C   C92       1.0  0.4825322189597186  0.9554540885798912  0.7092199913325672  1.0000
  C   C93       1.0  0.04235826329517062  0.6314866456933571  0.11279669813858108  1.0000
  C   C94       1.0  0.060915073988311974  0.5158374213790893  0.7792496572929577  1.0000
  C   C95       1.0  0.4690027892011982  0.4971569490409991  0.787473363739579  1.0000
  C   C96       1.0  0.45922139873518825  0.9113876258721517  0.7820530755806556  1.0000
  C   C97       1.0  0.5190436347846656  0.0626794865155418  0.2792770374482814  1.0000
  C   C98       1.0  0.5652588202962929  0.449628948909293  0.2784514457479901  1.0000
  C   C99       1.0  0.901819855611748  0.4604359179300985  0.2811313299664064  1.0000
  C   C100      1.0  0.9003848541455636  0.6922092219504206  0.5843712755268199  1.0000
  C   C101      1.0  0.2933569108435847  0.3120035509304273  0.5524135237214763  1.0000
  C   C102      1.0  0.6955309616716079  0.984517414315384  0.5540657196512269  1.0000
  N   N1        1.0  0.02562066577412029  0.4170438945195798  0.7628669482919859  1.0000
  N   N2        1.0  0.4101877347404538  0.010420825964274596  0.22579821978290934  1.0000
  N   N3        1.0  0.6266389692605259  0.5572792916860793  0.2247069764123779  1.0000
  N   N4        1.0  0.9200173699173032  0.38925966220617164  0.22449980240588724  1.0000
  N   N5        1.0  0.07208083585680915  0.5962337820447843  0.7211420654700902  1.0000
  N   N6        1.0  0.3923380211001372  0.40837184121657794  0.7308114579338393  1.0000
  N   N7        1.0  0.5442612609099767  0.9195117479898086  0.725293396058639  1.0000
  N   N8        1.0  0.5986533375229897  0.07422301077419037  0.22104405372763838  1.0000
  N   N9        1.0  0.49635738852602856  0.3688249752291312  0.22013699078739526  1.0000
  N   N10       1.0  0.9178421848592249  0.554706686971727  0.2257978329921144  1.0000
  N   N11       1.0  0.09681848471434042  0.6079335897871799  0.7580495886058856  1.0000
  N   N12       1.0  0.5663584547822464  0.5663548297108321  0.7710100563808665  1.0000
  N   N13       1.0  0.3821608885801595  0.417422771745855  0.7680415400408548  1.0000
  N   N14       1.0  0.5325406713825414  0.8973726352087465  0.7624062913080109  1.0000
  N   N15       1.0  0.6103982356872136  0.09662583719766359  0.2581836235513676  1.0000
  N   N16       1.0  0.5077057060240477  0.3575035179983317  0.2572305098194789  1.0000
  N   N17       1.0  0.900630676764173  0.5438167920381358  0.263203878237114  1.0000
  N   N18       1.0  0.9801619007487687  0.6577531647425657  0.5879575181847156  1.0000
  N   N19       1.0  0.3193895037900275  0.3093573456767587  0.5927916960258982  1.0000
  N   N20       1.0  0.6955214461034128  0.022417541172487194  0.5930963085372197  1.0000
  N   N21       1.0  0.6527832633902546  0.9841906319954031  0.08600426755275949  1.0000
  N   N22       1.0  0.26765665963289104  0.33450924763859274  0.10620196558054569  1.0000
  N   N23       1.0  0.38511783468388205  0.9285239318505133  0.7645942729939887  1.0000
  N   N24       1.0  0.07514043621763025  0.7363251850661428  0.10041574370708158  1.0000
  N   N25       1.0  0.421638924014168  0.03142647584916599  0.26299313714660844  1.0000
  N   N26       1.0  0.6377999850337586  0.5459699855337661  0.2617611495048422  1.0000
  N   N27       1.0  0.9009337069792022  0.37749509370799217  0.2618764688230328  1.0000
  N   N28       1.0  0.00269255444091235  0.405728215621586  0.7257810965849456  1.0000
  N   N29       1.0  0.5765645385701035  0.5574673960535321  0.7336028884881641  1.0000
  N   N30       1.0  0.39708714943893847  0.9511209896926187  0.7275116259103667  1.0000
  O   O1        1.0  0.4960915773566582  0.13314644876998466  0.5395768333411155  1.0000
  O   O2        1.0  0.3104936093192946  0.4815426522904501  0.04478601480860079  1.0000
  O   O3        1.0  0.13955843230837653  0.661738633297176  0.03546856631723468  1.0000
  O   O4        1.0  0.48741598740991765  0.8196642029227517  0.035406621923286294  1.0000
  O   O5        1.0  0.4870740669423623  0.1365577068484001  0.4590385728526555  1.0000
  O   O6        1.0  0.8207527127220188  0.3333905857336106  0.4608142086204834  1.0000
  O   O7        1.0  0.6372527044126741  0.48968335732128315  0.4612793294391506  1.0000
  O   O8        1.0  0.1309446618492202  0.48844053373351665  0.9607270649478962  1.0000
  O   O9        1.0  0.33856876689339527  0.8241937037008711  0.9623927459328884  1.0000
  O   O10       1.0  0.4825936088205152  0.6251702200791555  0.9672110000863863  1.0000
  O   O11       1.0  0.4840839875420214  0.3223032677370625  0.4586372957216724  1.0000
  O   O12       1.0  0.821521949402708  0.3410252544021616  0.5370557184591503  1.0000
  O   O13       1.0  0.6500754599318198  0.1479319355579278  0.4600724468931076  1.0000
  O   O14       1.0  0.8108708363236873  0.4863407268333191  0.46117155392896336  1.0000
  O   O15       1.0  0.31213927042576023  0.4782328773657484  0.9619808969953919  1.0000
  O   O16       1.0  0.15123294714346266  0.6563031326125782  0.9586360698048035  1.0000
  O   O17       1.0  0.4817635386571337  0.7995335624631746  0.9598446524102896  1.0000
  O   O18       1.0  0.6351731051384206  0.3120089373940047  0.49907389209116787  1.0000
  O   O19       1.0  0.3052888290488056  0.6340427651493954  0.00116386677729  1.0000
  O   O20       1.0  0.6320904734266363  0.48623776275403685  0.5378472127260705  1.0000
  O   O21       1.0  0.12796892645518906  0.499089613162532  0.0423702636394694  1.0000
  O   O22       1.0  0.33149602497523006  0.8210256458583981  0.03861853393149059  1.0000
  O   O23       1.0  0.47419811607066714  0.6380508788317982  0.0440505768580195  1.0000
  O   O24       1.0  0.48396420843710075  0.3160322746334714  0.5427064145552123  1.0000
  O   O25       1.0  0.661143655897959  0.1499282771167429  0.5377076144695606  1.0000
  O   O26       1.0  0.8121332314375066  0.4935767857086119  0.5373769956045962  1.0000
  O   O27       1.0  0.3379358768560932  0.14929449955392468  0.5029046342707416  1.0000
  O   O28       1.0  0.13298641794318664  0.33634824983301576  0.004093757264094198  1.0000
