data_image0
_chemical_formula_structural       K4H8C16O8
_chemical_formula_sum              "K4 H8 C16 O8"
_cell_length_a       3.8706902900699935
_cell_length_b       10.591615148142099
_cell_length_c       11.635721913615962
_cell_angle_alpha    111.7899716586468
_cell_angle_beta     90.00067096975188
_cell_angle_gamma    89.99988020404794

_space_group_name_H-M_alt    "P 1"
_space_group_IT_number       1

loop_
  _space_group_symop_operation_xyz
  'x, y, z'

loop_
  _atom_site_type_symbol
  _atom_site_label
  _atom_site_symmetry_multiplicity
  _atom_site_fract_x
  _atom_site_fract_y
  _atom_site_fract_z
  _atom_site_occupancy
  K   K1        1.0  0.7917948943597464  0.39312377202258386  0.8411549566978493  1.0000
  K   K2        1.0  0.708211923907534  0.39311653199999347  0.3411518031943643  1.0000
  K   K3        1.0  0.2082224202578402  0.606882440127194  0.15885371377161306  1.0000
  K   K4        1.0  0.2917950565976852  0.6068784962909463  0.6588529711660486  1.0000
  H   H1        1.0  0.2510101196582823  0.13713297029022437  0.20481022610024974  1.0000
  H   H2        1.0  0.2489804537822025  0.13713510050227742  0.7048105723369174  1.0000
  H   H3        1.0  0.7489477738641029  0.8628631880526072  0.7951872064418593  1.0000
  H   H4        1.0  0.7510471946730561  0.8628590748264526  0.295182731571522  1.0000
  H   H5        1.0  0.5703932951480296  0.1024623651377041  0.8410542639138398  1.0000
  H   H6        1.0  0.9295866440919909  0.1024604095396242  0.3410538185908151  1.0000
  H   H7        1.0  0.4295413466743838  0.8975328016717085  0.15894110418838642  1.0000
  H   H8        1.0  0.0704461714636224  0.8975347321231769  0.658943259920143  1.0000
  C   C1        1.0  0.28805737910054313  0.28167069967147285  0.056143669395694894  1.0000
  C   C2        1.0  0.2119453200277945  0.2816687168262676  0.5561432971624568  1.0000
  C   C3        1.0  0.7119315167087166  0.7183356006344184  0.9438590153103943  1.0000
  C   C4        1.0  0.7880823285680876  0.7183314580219715  0.443858972688119  1.0000
  C   C5        1.0  0.39806862884361743  0.1358669527238874  0.026225904857383905  1.0000
  C   C6        1.0  0.1019260491169547  0.13586481968503958  0.526228487283852  1.0000
  C   C7        1.0  0.6019150997820474  0.8641272351804903  0.9737665438576285  1.0000
  C   C8        1.0  0.8980860982696868  0.8641242216843068  0.4737664660448928  1.0000
  C   C9        1.0  0.3613947089960305  0.07646153963339943  0.11506585315304817  1.0000
  C   C10       1.0  0.138598219635071  0.07646458641409738  0.6150660862787801  1.0000
  C   C11       1.0  0.6385657680702863  0.923537656257068  0.8849334970642245  1.0000
  C   C12       1.0  0.8614294288814861  0.9235387141496078  0.3849321155382696  1.0000
  C   C13       1.0  0.4612139477645202  0.942517358404686  0.08927542856052641  1.0000
  C   C14       1.0  0.03877348226208  0.9425162099791039  0.5892763876390531  1.0000
  C   C15       1.0  0.5387232775813189  0.05748800073717321  0.910721771243686  1.0000
  C   C16       1.0  0.9612593332545885  0.05748508235006262  0.4107193956085239  1.0000
  O   O1        1.0  0.19537540772652306  0.3501993106732471  0.16707933459615276  1.0000
  O   O2        1.0  0.304633385084685  0.3501963826069527  0.667079855649362  1.0000
  O   O3        1.0  0.8046264057535738  0.6498079433746539  0.8329279798293212  1.0000
  O   O4        1.0  0.6953942636054862  0.6498006539302494  0.3329273373351996  1.0000
  O   O5        1.0  0.2968132552297576  0.32892082092913444  0.970120480371818  1.0000
  O   O6        1.0  0.2031907318789692  0.32891967663643135  0.4701194307559078  1.0000
  O   O7        1.0  0.7031782240865283  0.6710865086875089  0.029881703429019593  1.0000
  O   O8        1.0  0.7968420837598701  0.6710866110938057  0.5298841091436016  1.0000
