data_image0
_chemical_formula_structural       Cd4H48C68N8O20
_chemical_formula_sum              "Cd4 H48 C68 N8 O20"
_cell_length_a       8.910844613470518
_cell_length_b       12.238458777611633
_cell_length_c       16.117407684077484
_cell_angle_alpha    85.58236330819426
_cell_angle_beta     73.96178139321971
_cell_angle_gamma    73.85322339930867

_space_group_name_H-M_alt    "P 1"
_space_group_IT_number       1

loop_
  _space_group_symop_operation_xyz
  'x, y, z'

loop_
  _atom_site_type_symbol
  _atom_site_label
  _atom_site_symmetry_multiplicity
  _atom_site_fract_x
  _atom_site_fract_y
  _atom_site_fract_z
  _atom_site_occupancy
  Cd  Cd1       1.0  0.014891037587077235  0.7440950592497086  0.39093990267708273  1.0000
  Cd  Cd2       1.0  0.5940624267860954  0.7554158054108485  0.3907388726415492  1.0000
  Cd  Cd3       1.0  0.9851039158025189  0.2559077062006665  0.6090609733748522  1.0000
  Cd  Cd4       1.0  0.4059347483016253  0.24458530134067757  0.6092557026422725  1.0000
  H   H1        1.0  0.19931824519090213  0.5082942006079706  0.42788996082615693  1.0000
  H   H2        1.0  0.37399368797969873  0.9914498723920175  0.4277820728816693  1.0000
  H   H3        1.0  0.8006821201302612  0.491705138246715  0.5721043565191549  1.0000
  H   H4        1.0  0.6259871735101968  0.008543090219788496  0.5722244324504687  1.0000
  H   H5        1.0  0.29562815633382633  0.5970162406437183  0.43882360493587674  1.0000
  H   H6        1.0  0.2659354126622656  0.9032149569194559  0.4387539324286394  1.0000
  H   H7        1.0  0.7043812142106775  0.402981969350961  0.5611737602362368  1.0000
  H   H8        1.0  0.7340493841585527  0.09677961256063128  0.5612504555038954  1.0000
  H   H9        1.0  0.6931317190857911  0.8193902747165255  0.20190074545301692  1.0000
  H   H10       1.0  0.10509557370627215  0.6804530730703605  0.20202008762854723  1.0000
  H   H11       1.0  0.3068650361596638  0.18059309897561346  0.7980978076922868  1.0000
  H   H12       1.0  0.8949008108718461  0.31955475025851854  0.79797768936605  1.0000
  H   H13       1.0  0.17477324196084232  0.9783906509466862  0.5642316224863182  1.0000
  H   H14       1.0  0.2609023812752937  0.5221142048701566  0.5644578945631693  1.0000
  H   H15       1.0  0.825210082455314  0.021612368854093178  0.43577374616988623  1.0000
  H   H16       1.0  0.7390951710603418  0.47789277233268723  0.43553784247420424  1.0000
  H   H17       1.0  0.08012450108379462  0.9564837643734094  0.8382699341088937  1.0000
  H   H18       1.0  0.08192488218169562  0.5437424946174333  0.8384751817970012  1.0000
  H   H19       1.0  0.9198595616326841  0.04351673869538081  0.16173321389379683  1.0000
  H   H20       1.0  0.9180885717130282  0.4562623175869618  0.16152406838085653  1.0000
  H   H21       1.0  0.863659858179652  0.7758835578930171  0.7031339843926007  1.0000
  H   H22       1.0  0.4330524924881445  0.7246308424960334  0.7033349278842564  1.0000
  H   H23       1.0  0.13633625197431332  0.22410905307749834  0.2968679510930414  1.0000
  H   H24       1.0  0.5669475201725689  0.27538371725538724  0.2966558507014128  1.0000
  H   H25       1.0  0.9068693079059283  0.9502309317343248  0.9412738108265446  1.0000
  H   H26       1.0  0.1516237256013824  0.5501724716180689  0.9415151769425592  1.0000
  H   H27       1.0  0.09314714401377701  0.0497543124074227  0.0587336009816184  1.0000
  H   H28       1.0  0.848413802560252  0.44982331048937135  0.05848058903436748  1.0000
  H   H29       1.0  0.7813083446215  0.884691564726211  0.0819875919104902  1.0000
  H   H30       1.0  0.1364658191859647  0.6156432011474279  0.08220154439229792  1.0000
  H   H31       1.0  0.21871513285658006  0.1152809063434717  0.9180159216803077  1.0000
  H   H32       1.0  0.8635558374229859  0.38435635799638845  0.9177959505791691  1.0000
  H   H33       1.0  0.6830900584025911  0.6182566417225387  0.9610824736953418  1.0000
  H   H34       1.0  0.3563173326323793  0.8817959888188154  0.9613827608484725  1.0000
  H   H35       1.0  0.31692063912846175  0.38173059725043157  0.03891373012353941  1.0000
  H   H36       1.0  0.6436617147855445  0.1182299533642421  0.0386180870567543  1.0000
  H   H37       1.0  0.8138940200509667  0.6826988942548126  0.8194174074882881  1.0000
  H   H38       1.0  0.36708568624298693  0.8174793381350937  0.8197001213744813  1.0000
  H   H39       1.0  0.1861095587128858  0.3172943972438275  0.1805815328611189  1.0000
  H   H40       1.0  0.632894154285715  0.18254236211101477  0.1803013465957477  1.0000
  H   H41       1.0  0.5300594088426607  0.5722980918046189  0.10378030725477322  1.0000
  H   H42       1.0  0.3661396936278081  0.9277480347715965  0.10435578365699881  1.0000
  H   H43       1.0  0.46994059824385925  0.4276876802828298  0.896221189862949  1.0000
  H   H44       1.0  0.6338797412830104  0.07225318307107637  0.8956480120825817  1.0000
  H   H45       1.0  0.44566945146821285  0.5781291445731327  0.28108162919681234  1.0000
  H   H46       1.0  0.2730968597622121  0.9215730965035576  0.2816338954766096  1.0000
  H   H47       1.0  0.5543247542227194  0.4218677714717031  0.7189172845404385  1.0000
  H   H48       1.0  0.7269042474668194  0.07842773268362893  0.7183731271258651  1.0000
  C   C1        1.0  0.011836446814122194  0.8313009090901033  0.5424505329899176  1.0000
  C   C2        1.0  0.4460404289196518  0.6688196207638982  0.5426415543770915  1.0000
  C   C3        1.0  0.9881545370421563  0.1686952205973498  0.4575506789099393  1.0000
  C   C4        1.0  0.5539700503759306  0.33117605145300627  0.45735439070264766  1.0000
  C   C5        1.0  0.022499417944764687  0.8693060521855004  0.6258846042549777  1.0000
  C   C6        1.0  0.3516572129401678  0.63109496169119  0.6261033480466622  1.0000
  C   C7        1.0  0.977493197328613  0.13069593087652012  0.3741165299356268  1.0000
  C   C8        1.0  0.6483423344661574  0.36891195634332524  0.373892750650171  1.0000
  C   C9        1.0  0.11650606998210815  0.9438796996152446  0.624725134151582  1.0000
  C   C10       1.0  0.25875504865679505  0.5565743932440483  0.6249513196461222  1.0000
  C   C11       1.0  0.883481612425001  0.05612070616265899  0.3752779366088959  1.0000
  C   C12       1.0  0.7412495138314911  0.4434315142671393  0.37504710355860044  1.0000
  C   C13       1.0  0.1343904267196053  0.9755317015207083  0.7018946543942164  1.0000
  C   C14       1.0  0.16376492520922886  0.5248411360742722  0.7020919469561377  1.0000
  C   C15       1.0  0.865593608591638  0.024469664150565486  0.298107073249227  1.0000
  C   C16       1.0  0.8362398349064577  0.47516309229258263  0.2979056758208927  1.0000
  C   C17       1.0  0.05967612825634888  0.9316862770599316  0.7798686049053956  1.0000
  C   C18       1.0  0.1607139678610991  0.5685781072737583  0.7800593152866853  1.0000
  C   C19       1.0  0.9403149694168392  0.06830981907431519  0.22013482784812782  1.0000
  C   C20       1.0  0.8392947865919568  0.43142941961313147  0.21993557022590693  1.0000
  C   C21       1.0  0.9582246030212788  0.8607260507446667  0.783392884462181  1.0000
  C   C22       1.0  0.2584253802783467  0.6396886868774987  0.7836026030362788  1.0000
  C   C23       1.0  0.04176877376167448  0.13926913612617403  0.2166109100175149  1.0000
  C   C24       1.0  0.7415897024323002  0.36031950406106733  0.21639274765655614  1.0000
  C   C25       1.0  0.9408818373422247  0.8303373693981656  0.7048611978762622  1.0000
  C   C26       1.0  0.3541344045033128  0.6701697669418107  0.7050674020849073  1.0000
  C   C27       1.0  0.05911216652532398  0.16965780893429644  0.2951419768720385  1.0000
  C   C28       1.0  0.6458722204540734  0.3298446067662225  0.2949238417477177  1.0000
  C   C29       1.0  0.22607353734152025  0.06081611835379161  0.7020601726353988  1.0000
  C   C30       1.0  0.07185607050483604  0.43957006619450567  0.7022339598358798  1.0000
  C   C31       1.0  0.773915202613743  0.9391874819157947  0.2979535632248584  1.0000
  C   C32       1.0  0.9281497419566591  0.5604324073832104  0.297766684489389  1.0000
  C   C33       1.0  0.8737346368833838  0.8215393893060676  0.8679270860278125  1.0000
  C   C34       1.0  0.25837064770282586  0.6787993099787428  0.8681646284003435  1.0000
  C   C35       1.0  0.1262585944814489  0.17845327686374193  0.13207652782231352  1.0000
  C   C36       1.0  0.7416421284928275  0.32121065282569816  0.13182894020705763  1.0000
  C   C37       1.0  0.8605196079489585  0.8761493439196852  0.9444409202820269  1.0000
  C   C38       1.0  0.1949384659872991  0.6241881798584501  0.9446801061080022  1.0000
  C   C39       1.0  0.1394944552400617  0.12384025989538121  0.05556044836294661  1.0000
  C   C40       1.0  0.8050820612625033  0.3758206711627494  0.055317749789011904  1.0000
  C   C41       1.0  0.7877889020417045  0.8390808572495131  0.025007732727580466  1.0000
  C   C42       1.0  0.18708448607166867  0.6612323450578188  0.0252447768317907  1.0000
  C   C43       1.0  0.21222494992559118  0.1608986427156651  0.9749937139602383  1.0000
  C   C44       1.0  0.8129305402337149  0.3387766288693967  0.974755015501657  1.0000
  C   C45       1.0  0.7234000588651596  0.7447386277428762  0.033187527909781536  1.0000
  C   C46       1.0  0.24346553926220343  0.7554713820215468  0.033450556837117125  1.0000
  C   C47       1.0  0.2766059650346475  0.2552495210937877  0.9668130139622092  1.0000
  C   C48       1.0  0.7565394594804359  0.24454208759271265  0.9665484082563153  1.0000
  C   C49       1.0  0.7327960980464994  0.6910514325576925  0.9571366200681554  1.0000
  C   C50       1.0  0.3103655233949283  0.8091086419297749  0.957427875138464  1.0000
  C   C51       1.0  0.2672069332472731  0.308936805031486  0.04286337931464602  1.0000
  C   C52       1.0  0.6896169956943298  0.1909122076209684  0.04256889311919567  1.0000
  C   C53       1.0  0.8060316098056647  0.7287744642617257  0.8763803948314859  1.0000
  C   C54       1.0  0.3178927043132375  0.7714202157074295  0.8766528465186241  1.0000
  C   C55       1.0  0.1939739914341132  0.2712179054660949  0.12362032753663502  1.0000
  C   C56       1.0  0.6821015259651517  0.22859779168546623  0.12334369021253622  1.0000
  C   C57       1.0  0.6497255196534367  0.7047999750220414  0.11814241277968307  1.0000
  C   C58       1.0  0.2322596103055757  0.7952032049122623  0.11845757616247  1.0000
  C   C59       1.0  0.3502678203259461  0.2951877083137547  0.881855778372568  1.0000
  C   C60       1.0  0.7677372859454226  0.20480370121513397  0.8815446426061797  1.0000
  C   C61       1.0  0.5604589457443084  0.6243058219215668  0.14469428770088652  1.0000
  C   C62       1.0  0.294923550402629  0.8756078549416202  0.14517365813919986  1.0000
  C   C63       1.0  0.43953436523504064  0.3756817818004022  0.8553097654512314  1.0000
  C   C64       1.0  0.7050779040679058  0.12439723265897129  0.8548292840818021  1.0000
  C   C65       1.0  0.5163281719004686  0.6264859312027369  0.23506251431435748  1.0000
  C   C66       1.0  0.2485802683340452  0.8732715167424844  0.23553689634919556  1.0000
  C   C67       1.0  0.4836600443824044  0.37350774549040017  0.7649387750278791  1.0000
  C   C68       1.0  0.7514215223848525  0.12672852091768053  0.7644650648812643  1.0000
  N   N1        1.0  0.6558183535186046  0.748574668304734  0.1916439148814676  1.0000
  N   N2        1.0  0.15262706728393735  0.7512884396766212  0.19188386674856162  1.0000
  N   N3        1.0  0.3441846529711087  0.25141690652732507  0.8083584859178572  1.0000
  N   N4        1.0  0.8473671204001011  0.24871770510821978  0.8081178095976257  1.0000
  N   N5        1.0  0.5745964553421602  0.7029941862643696  0.26283871961837957  1.0000
  N   N6        1.0  0.162537083149047  0.7967319057332034  0.2631649731575437  1.0000
  N   N7        1.0  0.4253982868257111  0.2969984753361103  0.7371622344764077  1.0000
  N   N8        1.0  0.8374524873090083  0.20327436592668838  0.7368365996011406  1.0000
  O   O1        1.0  0.22366518719729797  0.5794877128415267  0.4060635948210916  1.0000
  O   O2        1.0  0.3707979128790698  0.920481130101109  0.4059374404916696  1.0000
  O   O3        1.0  0.7763364622994687  0.42051322097432825  0.5939347251964407  1.0000
  O   O4        1.0  0.6291887335943187  0.0795108595096181  0.5940671284707548  1.0000
  O   O5        1.0  0.9141499594320378  0.7731510854902695  0.5417434655700148  1.0000
  O   O6        1.0  0.5446104853553635  0.7268306237656433  0.5418268321211528  1.0000
  O   O7        1.0  0.0858493477525286  0.2268456490805164  0.4582585731695374  1.0000
  O   O8        1.0  0.4553994548621033  0.2731668282552135  0.4581632508252796  1.0000
  O   O9        1.0  0.1050645833475058  0.8570526136740998  0.47149083123363766  1.0000
  O   O10       1.0  0.4238754936067791  0.6428467173993866  0.4716943256061726  1.0000
  O   O11       1.0  0.8949250119146015  0.142950320742905  0.5285083401085302  1.0000
  O   O12       1.0  0.5761377190598227  0.35714637891718565  0.5282997604795128  1.0000
  O   O13       1.0  0.241929742317062  0.1263922466116227  0.6344393507091866  1.0000
  O   O14       1.0  0.12367940889598839  0.3740455134499214  0.6346008124410503  1.0000
  O   O15       1.0  0.7580636754654366  0.8736138606509769  0.36556658651461055  1.0000
  O   O16       1.0  0.8763269168332003  0.6259569851426293  0.3653969912991429  1.0000
  O   O17       1.0  0.2786217352642879  0.06612685568074281  0.7659694136666034  1.0000
  O   O18       1.0  0.9554059533505068  0.43419158420406484  0.7661025722104071  1.0000
  O   O19       1.0  0.7213535472614792  0.93387223450123  0.2340313064408477  1.0000
  O   O20       1.0  0.044605816917837056  0.5658115744711196  0.2338977367339652  1.0000
