data_image0
_chemical_formula_structural       Co6H6C18N18Cl6
_chemical_formula_sum              "Co6 H6 C18 N18 Cl6"
_cell_length_a       8.038514615206246
_cell_length_b       14.60884502143414
_cell_length_c       14.607213284253652
_cell_angle_alpha    116.70539510095544
_cell_angle_beta     100.56832869922921
_cell_angle_gamma    100.57488224743649

_space_group_name_H-M_alt    "P 1"
_space_group_IT_number       1

loop_
  _space_group_symop_operation_xyz
  'x, y, z'

loop_
  _atom_site_type_symbol
  _atom_site_label
  _atom_site_symmetry_multiplicity
  _atom_site_fract_x
  _atom_site_fract_y
  _atom_site_fract_z
  _atom_site_occupancy
  Co  Co1       1.0  0.2897771838382183  0.5832606544569146  0.28935305903546993  1.0000
  Co  Co2       1.0  0.7066875727913382  0.7062837484211142  0.4166973976366533  1.0000
  Co  Co3       1.0  0.0002438242260255319  0.7105668415157  0.29373354194328993  1.0000
  Co  Co4       1.0  0.7066998664162936  0.41670048866682663  0.7062623786131041  1.0000
  Co  Co5       1.0  0.2897310281542502  0.2893483111477835  0.5831602950708756  1.0000
  Co  Co6       1.0  0.00026794970381869025  0.2937740406873246  0.7105350262318664  1.0000
  H   H1        1.0  0.18603317454308427  0.9999579889649585  0.423759026824719  1.0000
  H   H2        1.0  0.813895909231739  0.5762743200782623  0.9999377860921895  1.0000
  H   H3        1.0  0.18587514495183646  0.42365233700422783  0.9998689632242943  1.0000
  H   H4        1.0  0.7625331452056087  0.5763941951164638  0.5763283876066011  1.0000
  H   H5        1.0  0.23759814442058055  0.42371313508341046  0.42370004244070003  1.0000
  H   H6        1.0  0.8139556284840946  0.9999700116083189  0.5764284174937161  1.0000
  C   C1        1.0  0.36505720443659573  0.9057904007173292  0.4311170139092084  1.0000
  C   C2        1.0  0.6349645301557131  0.5681582104779039  0.09400659540013126  1.0000
  C   C3        1.0  0.45909307443636027  0.5251179434933918  0.09406992756743196  1.0000
  C   C4        1.0  0.9342366051640025  0.5691060763444681  0.47487733977892077  1.0000
  C   C5        1.0  0.0669328381935372  0.5259162638713378  0.4317708510120468  1.0000
  C   C6        1.0  0.5409904505013685  0.9058927723127683  0.47423603526920743  1.0000
  C   C7        1.0  0.6350666080452497  0.09404761578750248  0.5683303987429866  1.0000
  C   C8        1.0  0.36496495054731776  0.4309851113214478  0.905726633518789  1.0000
  C   C9        1.0  0.5409121621730434  0.47411220424915274  0.9058455646612771  1.0000
  C   C10       1.0  0.06695423717944497  0.43186475693868  0.5259365239093157  1.0000
  C   C11       1.0  0.934264965129074  0.4749733586773316  0.569130496768672  1.0000
  C   C12       1.0  0.4592107762427202  0.0941100664762686  0.5252809487979206  1.0000
  C   C13       1.0  0.3193705159113165  0.9999520405466246  0.455280909706815  1.0000
  C   C14       1.0  0.6806045871483021  0.544437699904023  0.9999366965897563  1.0000
  C   C15       1.0  0.3192637899144727  0.4551384061890289  0.9998937871259911  1.0000
  C   C16       1.0  0.8645131818883698  0.5449698308767595  0.5449333292298492  1.0000
  C   C17       1.0  0.1361628877194079  0.45556040467711517  0.4555302203992113  1.0000
  C   C18       1.0  0.6806936772143644  0.9999848242221464  0.5445937170004668  1.0000
  N   N1        1.0  0.2639541098924241  0.7996814684565265  0.36649658947088437  1.0000
  N   N2        1.0  0.7360410282239794  0.6330676319662274  0.2001003875571143  1.0000
  N   N3        1.0  0.4641062196179249  0.5666485025260856  0.2002179442886458  1.0000
  N   N4        1.0  0.8976486190189656  0.6336620954840909  0.43329447966451073  1.0000
  N   N5        1.0  0.10302976555130525  0.567026503956228  0.3667849616113513  1.0000
  N   N6        1.0  0.5360371228505372  0.7998190810263709  0.4329832231945759  1.0000
  N   N7        1.0  0.7361390260797901  0.2001380393995689  0.6332200651799411  1.0000
  N   N8        1.0  0.2638799955048866  0.3663989073598799  0.7995983849554875  1.0000
  N   N9        1.0  0.5359736542794804  0.4329072716956688  0.7997602894965111  1.0000
  N   N10       1.0  0.10307145179180567  0.36691719168567255  0.5670785175712751  1.0000
  N   N11       1.0  0.8977027499481167  0.43342493658281006  0.6337270283254738  1.0000
  N   N12       1.0  0.4641969273005841  0.20023118064681714  0.5668014324902444  1.0000
  N   N13       1.0  0.3714456276873648  0.7414122504526404  0.3706535678847374  1.0000
  N   N14       1.0  0.6298739698500452  0.6291464478327385  0.2585098767865049  1.0000
  N   N15       1.0  0.0008019459445165186  0.6293734014441341  0.3707261551137293  1.0000
  N   N16       1.0  0.6299473217267247  0.25853190544609117  0.6292887892030662  1.0000
  N   N17       1.0  0.37139203580742464  0.3705894689965277  0.7413328834084041  1.0000
  N   N18       1.0  0.0008742235013770679  0.37087126840696544  0.6294484662744964  1.0000
  Cl  Cl1       1.0  0.07635929555561208  0.577527941145199  0.15269289885640802  1.0000
  Cl  Cl2       1.0  0.9233204298197887  0.8473500184458869  0.42419963244314096  1.0000
  Cl  Cl3       1.0  0.49916666246609503  0.5757423803554857  0.4229478284679686  1.0000
  Cl  Cl4       1.0  0.9233535653181019  0.42423726297703024  0.8473701824319093  1.0000
  Cl  Cl5       1.0  0.0760251247400916  0.1527033467236976  0.5771099275023772  1.0000
  Cl  Cl6       1.0  0.49910931376565754  0.422582480287474  0.5753995117191265  1.0000
