data_image0
_chemical_formula_structural       Cu2P2H18C16N8O8
_chemical_formula_sum              "Cu2 P2 H18 C16 N8 O8"
_cell_length_a       7.352323255931989
_cell_length_b       7.651103722851446
_cell_length_c       10.678159911965505
_cell_angle_alpha    93.40043131155203
_cell_angle_beta     108.43288497168396
_cell_angle_gamma    90.51247871071496

_space_group_name_H-M_alt    "P 1"
_space_group_IT_number       1

loop_
  _space_group_symop_operation_xyz
  'x, y, z'

loop_
  _atom_site_type_symbol
  _atom_site_label
  _atom_site_symmetry_multiplicity
  _atom_site_fract_x
  _atom_site_fract_y
  _atom_site_fract_z
  _atom_site_occupancy
  Cu  Cu1       1.0  0.9999998392322952  0.5000037025897299  1.0686905014828558e-06  1.0000
  Cu  Cu2       1.0  0.4999996704972389  0.5000004025971805  0.9999996669272165  1.0000
  P   P1        1.0  0.25036751338983976  0.1513166972817004  0.9962655702165932  1.0000
  P   P2        1.0  0.7496317884530724  0.8486871238817102  0.0037366126926273208  1.0000
  H   H1        1.0  0.0624195337661106  0.0584305562130609  0.8020304930149679  1.0000
  H   H2        1.0  0.9375772563021344  0.9415837031733006  0.19796777624612366  1.0000
  H   H3        1.0  0.23067026351905182  0.7181641177025282  0.8435322713573329  1.0000
  H   H4        1.0  0.7693261518691159  0.2818396162023617  0.15646179043504568  1.0000
  H   H5        1.0  0.23607216880693468  0.5391259062285555  0.765369732878348  1.0000
  H   H6        1.0  0.7639301536318401  0.4608830064035913  0.23462205036201314  1.0000
  H   H7        1.0  0.1867943410039246  0.9250098358200846  0.1172024520496393  1.0000
  H   H8        1.0  0.8131991256952061  0.0749913322239451  0.8827946239751228  1.0000
  H   H9        1.0  0.42463362314214237  0.920687909271038  0.1132237543184402  1.0000
  H   H10       1.0  0.5753597979310497  0.07931194896350748  0.8867732645118167  1.0000
  H   H11       1.0  0.11467667259556441  0.2211712232659337  0.2542522737754638  1.0000
  H   H12       1.0  0.8853123302803354  0.7788248096801025  0.7457511413597331  1.0000
  H   H13       1.0  0.6746319071332678  0.0169807744258108  0.3036067355197218  1.0000
  H   H14       1.0  0.3253600299228694  0.9830177538727584  0.6963880405139945  1.0000
  H   H15       1.0  0.22974841482085406  0.3581798653285659  0.4818012134384304  1.0000
  H   H16       1.0  0.7702593106836063  0.6418187198419149  0.51820447952327  1.0000
  H   H17       1.0  0.792828208601115  0.1617566642272195  0.5305682602807238  1.0000
  H   H18       1.0  0.2071750455071282  0.8382378371242396  0.4694232044658548  1.0000
  C   C1        1.0  0.31529840926675223  0.0074748337721786  0.1301038606429969  1.0000
  C   C2        1.0  0.6846979750042692  0.9925276608315413  0.8698957688239943  1.0000
  C   C3        1.0  0.3856249889509371  0.10393584671472669  0.264286509339712  1.0000
  C   C4        1.0  0.6143653586460474  0.8960575749874239  0.7357180395303615  1.0000
  C   C5        1.0  0.2621543528014669  0.20274428104141862  0.3154933303811873  1.0000
  C   C6        1.0  0.7378489351606347  0.7972503848294606  0.684511259059974  1.0000
  C   C7        1.0  0.5779332950871847  0.0933789665883822  0.34259072212856984  1.0000
  C   C8        1.0  0.422058509927389  0.9066156557844849  0.6574057572780276  1.0000
  C   C9        1.0  0.3271865879232436  0.282435835283394  0.4429721422903441  1.0000
  C   C10       1.0  0.6728124857899543  0.717561436832554  0.5570297546463934  1.0000
  C   C11       1.0  0.6441962858498017  0.17417481633295748  0.469462167284206  1.0000
  C   C12       1.0  0.355807078855392  0.8258223986485831  0.5305369116768404  1.0000
  C   C13       1.0  0.5184950651129157  0.2670979686238866  0.5220725925857366  1.0000
  C   C14       1.0  0.4815122736207939  0.7328900323081837  0.47792420551633097  1.0000
  C   C15       1.0  0.5854789821140685  0.3413798322475828  0.658305287053544  1.0000
  C   C16       1.0  0.414530181781501  0.6586187730493835  0.34170259151021304  1.0000
  N   N1        1.0  0.7692770335328234  0.42417434536760357  0.8496607664171664  1.0000
  N   N2        1.0  0.2307251257472416  0.5758294220376784  0.1503382878706816  1.0000
  N   N3        1.0  0.5897428255381385  0.4532205406060896  0.845522063669371  1.0000
  N   N4        1.0  0.4102592424900422  0.5467806071802102  0.1544768762294808  1.0000
  N   N5        1.0  0.7721653623656904  0.3526961629440634  0.7343085989233843  1.0000
  N   N6        1.0  0.22784087670358835  0.6473010805390585  0.2656939137635845  1.0000
  N   N7        1.0  0.47017029871165755  0.40331115992569255  0.7266891815579086  1.0000
  N   N8        1.0  0.5298315868127474  0.5966847486226357  0.2733095295629582  1.0000
  O   O1        1.0  0.0794678008847214  0.2579092222882124  0.0018779808023836918  1.0000
  O   O2        1.0  0.920541824106543  0.7421025046064429  0.9981323446627072  1.0000
  O   O3        1.0  0.17589378671212327  0.014109078993215  0.8666295457897845  1.0000
  O   O4        1.0  0.8240984890706782  0.9858987119828838  0.13337313043087554  1.0000
  O   O5        1.0  0.42910878403441904  0.24800380294758637  0.9907159171807295  1.0000
  O   O6        1.0  0.5708932359496899  0.7519960232778329  0.009282028045447501  1.0000
  O   O7        1.0  0.19031648392766698  0.5947029467329796  0.8347394086479126  1.0000
  O   O8        1.0  0.8096827913157869  0.4053007451651638  0.16525246200128416  1.0000
