data_image0
_chemical_formula_structural       NiH42C24N4O8
_chemical_formula_sum              "Ni1 H42 C24 N4 O8"
_cell_length_a       7.970479339923958
_cell_length_b       8.47030627394265
_cell_length_c       10.9741765434444
_cell_angle_alpha    77.43071499487557
_cell_angle_beta     85.91601914958129
_cell_angle_gamma    67.86546442201444

_space_group_name_H-M_alt    "P 1"
_space_group_IT_number       1

loop_
  _space_group_symop_operation_xyz
  'x, y, z'

loop_
  _atom_site_type_symbol
  _atom_site_label
  _atom_site_symmetry_multiplicity
  _atom_site_fract_x
  _atom_site_fract_y
  _atom_site_fract_z
  _atom_site_occupancy
  Ni  Ni1       1.0  0.999998916700257  7.007690711959538e-07  0.9999992940183874  1.0000
  H   H1        1.0  0.9795659348981831  0.21329592718206672  0.13072959868560471  1.0000
  H   H2        1.0  0.020438018294875366  0.786699661957357  0.8692723755625167  1.0000
  H   H3        1.0  0.10746640295347727  0.8804661842762087  0.406078072764295  1.0000
  H   H4        1.0  0.8925387825348424  0.11952944687189418  0.5939201842036397  1.0000
  H   H5        1.0  0.9209961998882435  0.0310917963827464  0.3136986621471891  1.0000
  H   H6        1.0  0.0790082514929011  0.9689025002459317  0.6863025851998756  1.0000
  H   H7        1.0  0.17045352885369888  0.6926337968521281  0.2374265362424524  1.0000
  H   H8        1.0  0.8295468640827083  0.3073644540441265  0.762569725279768  1.0000
  H   H9        1.0  0.0293001108101762  0.6133210840137195  0.08424370012352261  1.0000
  H   H10       1.0  0.9706955392192784  0.3866797062543199  0.9157578664971737  1.0000
  H   H11       1.0  0.817755615636152  0.6421707469222537  0.15958324917055933  1.0000
  H   H12       1.0  0.182239772124298  0.3578339628866871  0.8404167808731203  1.0000
  H   H13       1.0  0.33725362948415943  0.1077798380226795  0.014051279379593511  1.0000
  H   H14       1.0  0.6627445099583158  0.8922209960745491  0.985946502952821  1.0000
  H   H15       1.0  0.22922678698326854  0.30589943937323494  0.06574799184764399  1.0000
  H   H16       1.0  0.7707743834996564  0.6941000757131236  0.9342516672716101  1.0000
  H   H17       1.0  0.37826636483182363  0.801545763543892  0.1675192728970672  1.0000
  H   H18       1.0  0.6217390938093035  0.19845243435209883  0.8324821960009462  1.0000
  H   H19       1.0  0.42339363812702413  0.8123829180591076  0.32160172936178105  1.0000
  H   H20       1.0  0.5766090440096008  0.1876191957367723  0.6783983369753912  1.0000
  H   H21       1.0  0.46801072602480814  0.9562191626086687  0.192846449616063  1.0000
  H   H22       1.0  0.531991956111817  0.04378295118721809  0.8071536167211094  1.0000
  H   H23       1.0  0.27453398918184047  0.22309203321999155  0.2690750966231548  1.0000
  H   H24       1.0  0.725463658278166  0.7769100833409295  0.7309243251783429  1.0000
  H   H25       1.0  0.25288356397482664  0.0811473766718223  0.4078915892685657  1.0000
  H   H26       1.0  0.7471168537840569  0.9188508340362489  0.5921083225257534  1.0000
  H   H27       1.0  0.05458675534481469  0.24409408136430238  0.3289254458101071  1.0000
  H   H28       1.0  0.9454116587779073  0.7559028130979328  0.6710756982353773  1.0000
  H   H29       1.0  0.5973991652602992  0.5190500925011605  0.8747386538789074  1.0000
  H   H30       1.0  0.4025952152401617  0.4809507160404749  0.12526115461382403  1.0000
  H   H31       1.0  0.8261023832114561  0.762076382154106  0.3965599343385763  1.0000
  H   H32       1.0  0.17390434648610412  0.23791529108542156  0.603443442470379  1.0000
  H   H33       1.0  0.04875540173622983  0.6259527398306234  0.4511012812678673  1.0000
  H   H34       1.0  0.951254563892768  0.3740402916634195  0.5488971460097433  1.0000
  H   H35       1.0  0.9425846907530868  0.5666106051965301  0.341164094575845  1.0000
  H   H36       1.0  0.057421503522661475  0.43338242083600426  0.6588345337260293  1.0000
  H   H37       1.0  0.7980709259529422  0.9340763334260274  0.1695792989401355  1.0000
  H   H38       1.0  0.2019292481538031  0.06592576668180783  0.8304218139812392  1.0000
  H   H39       1.0  0.4357084783628551  0.7674841783359412  0.7139947246770646  1.0000
  H   H40       1.0  0.5642856522798426  0.23252052965249703  0.28600537237469587  1.0000
  H   H41       1.0  0.34557658697401206  0.4297786683145191  0.529726825107872  1.0000
  H   H42       1.0  0.6544225798727511  0.5702195305260034  0.4702740662625615  1.0000
  C   C1        1.0  0.36496713252164165  0.7403037136419429  0.9237447380814103  1.0000
  C   C2        1.0  0.6350284787466551  0.2597036432912461  0.07625120334814989  1.0000
  C   C3        1.0  0.05713385593630708  0.9309822792690524  0.30905010445962233  1.0000
  C   C4        1.0  0.9428713342301976  0.0690198482148858  0.6909489152933475  1.0000
  C   C5        1.0  0.1829524382335777  0.0211561132755307  0.23974534402604064  1.0000
  C   C6        1.0  0.8170447249770091  0.9788407693191631  0.7602567795955509  1.0000
  C   C7        1.0  0.037107345938743305  0.7797395934983127  0.26341553474192386  1.0000
  C   C8        1.0  0.962891808496778  0.22025862543630842  0.7365835314924566  1.0000
  C   C9        1.0  0.8945872230490155  0.710512455537689  0.09717433732029686  1.0000
  C   C10       1.0  0.10541144560965417  0.2894870358135719  0.9028272809511861  1.0000
  C   C11       1.0  0.2044313182105669  0.20613707287538569  0.027957719027995202  1.0000
  C   C12       1.0  0.7955680845552779  0.7938637529952998  0.972040908864358  1.0000
  C   C13       1.0  0.3744921972864291  0.8897377528311806  0.2282099439592855  1.0000
  C   C14       1.0  0.6255134910681621  0.11026308214201207  0.7717883488926276  1.0000
  C   C15       1.0  0.1910271801632604  0.15088181678713397  0.3156810326435037  1.0000
  C   C16       1.0  0.8089732500068721  0.8491163738268456  0.6843207042868541  1.0000
  C   C17       1.0  0.4979503862881955  0.5576881197491373  0.9469287972501733  1.0000
  C   C18       1.0  0.5020419704317972  0.4423179090706739  0.053069356006659504  1.0000
  C   C19       1.0  0.9592442204485749  0.6769009236874267  0.36868957296208293  1.0000
  C   C20       1.0  0.04076273275683209  0.3230933966763487  0.6313097152327602  1.0000
  C   C21       1.0  0.4286804583352437  0.5040335668974691  0.5373348851756958  1.0000
  C   C22       1.0  0.5713194674411781  0.4959659262742945  0.4626666660876993  1.0000
  C   C23       1.0  0.3771683591060083  0.6070096266012753  0.6365645746110006  1.0000
  C   C24       1.0  0.6228272785122047  0.39299118376085573  0.3634351668736429  1.0000
  N   N1        1.0  0.09957641397330973  0.11874400058436411  0.1135951450320292  1.0000
  N   N2        1.0  0.9004245004462348  0.8812594239958501  0.886403890078242  1.0000
  N   N3        1.0  0.9219866531921429  0.8457344390060654  0.1492486753299573  1.0000
  N   N4        1.0  0.07801225759123301  0.15426766932831265  0.8507515920314787  1.0000
  O   O1        1.0  0.24311791121595422  0.7821481925977238  0.004527820330025605  1.0000
  O   O2        1.0  0.7568784589819945  0.21786045866670628  0.9954687809925037  1.0000
  O   O3        1.0  0.38302705142673  0.845579671115807  0.8245850882849413  1.0000
  O   O4        1.0  0.6169766255586354  0.15442636404147694  0.1754133744671265  1.0000
  O   O5        1.0  0.47008268163593675  0.7086759155341228  0.635923765279081  1.0000
  O   O6        1.0  0.5299119534004718  0.2913274898965311  0.36407651743964925  1.0000
  O   O7        1.0  0.2582761078526943  0.5944188884487858  0.7130292330432653  1.0000
  O   O8        1.0  0.7417202886951773  0.4055832162445867  0.28697116833435393  1.0000
