data_image0
_chemical_formula_structural       Zn4H55C78N19
_chemical_formula_sum              "Zn4 H55 C78 N19"
_cell_length_a       19.74988386360667
_cell_length_b       19.858228641586873
_cell_length_c       20.663627085028526
_cell_angle_alpha    108.0664813922671
_cell_angle_beta     106.12733579215781
_cell_angle_gamma    112.41045955885095

_space_group_name_H-M_alt    "P 1"
_space_group_IT_number       1

loop_
  _space_group_symop_operation_xyz
  'x, y, z'

loop_
  _atom_site_type_symbol
  _atom_site_label
  _atom_site_symmetry_multiplicity
  _atom_site_fract_x
  _atom_site_fract_y
  _atom_site_fract_z
  _atom_site_occupancy
  Zn  Zn1       1.0  0.6042404687414448  0.6025197577569658  0.5016679226194114  1.0000
  Zn  Zn2       1.0  0.3961171217039806  0.3969794860208042  0.5010677498148226  1.0000
  Zn  Zn3       1.0  0.5048885976434365  0.5993184450575131  0.6038945354370499  1.0000
  Zn  Zn4       1.0  0.4970522621765739  0.4026972887856602  0.3978928072457536  1.0000
  H   H1        1.0  0.7614517502858861  0.6092125923048429  0.6133306304604177  1.0000
  H   H2        1.0  0.0947395851362742  0.6531049881029888  0.3933949692898793  1.0000
  H   H3        1.0  0.5007926554088725  0.35931714670144993  0.6240982629997517  1.0000
  H   H4        1.0  0.9315073955449196  0.5270855221215882  0.28517985594010037  1.0000
  H   H5        1.0  0.9771073318464192  0.40715759040807603  0.2811489093550605  1.0000
  H   H6        1.0  0.9329623063425816  0.39719623863470593  0.39888989356557397  1.0000
  H   H7        1.0  0.6961286542221645  0.22117247360360182  0.737102211574559  1.0000
  H   H8        1.0  0.5505984246100369  0.06660486477731101  0.6720984469159035  1.0000
  H   H9        1.0  0.768465563899497  0.1391748313176464  0.6712339615300849  1.0000
  H   H10       1.0  0.7105296071051158  0.1585327492445288  0.5402806718755855  1.0000
  H   H11       1.0  0.5638626937996778  0.003977801130851302  0.4731951573828965  1.0000
  H   H12       1.0  0.2432066389862727  0.3806235993508907  0.3737798186476482  1.0000
  H   H13       1.0  0.32248492068296747  0.40021114375527855  0.14130105977510965  1.0000
  H   H14       1.0  0.43648947851717423  0.6188926499856962  0.735145996619785  1.0000
  H   H15       1.0  0.3280435751498985  0.6008909166858629  0.7792313851791874  1.0000
  H   H16       1.0  0.2901343827460324  0.3577694496510021  0.7251416160697204  1.0000
  H   H17       1.0  0.23751474511998796  0.43135650245459817  0.9383546024792366  1.0000
  H   H18       1.0  0.39462180422144405  0.6757294714636118  0.1606533924021463  1.0000
  H   H19       1.0  0.2922143274073861  0.6044639410011357  0.8844104078001748  1.0000
  H   H20       1.0  0.4368543575000317  0.6629002846497515  0.277179000006015  1.0000
  H   H21       1.0  0.28462208740784695  0.4137215429008094  0.025595266451340103  1.0000
  H   H22       1.0  0.25513572236139487  0.36163479577326296  0.8309402111885477  1.0000
  H   H23       1.0  0.5356035386997676  0.7933343301470617  0.6619741782403281  1.0000
  H   H24       1.0  0.7448131217965894  0.6117607913850733  0.8446621550185754  1.0000
  H   H25       1.0  0.6386011979068655  0.3751519745229217  0.34513276846914204  1.0000
  H   H26       1.0  0.29863109194768367  0.05169992350534611  0.20623906939552233  1.0000
  H   H27       1.0  0.1197843354397534  0.0859781900044752  0.2703331437647876  1.0000
  H   H28       1.0  0.9642544094171869  0.8224457208786476  0.06073491761353012  1.0000
  H   H29       1.0  0.011695614321744978  0.7774529751742778  0.85261584620649  1.0000
  H   H30       1.0  0.19024270646780644  0.9127538119954083  0.10321950861925437  1.0000
  H   H31       1.0  0.8854213595189722  0.698717224747398  0.7317140597699279  1.0000
  H   H32       1.0  0.0808548985608439  0.8337176011714577  0.987003302507759  1.0000
  H   H33       1.0  0.8707770078443389  0.6925617638368635  0.9659110502684598  1.0000
  H   H34       1.0  0.37251694043677475  0.207148500159029  0.2564620270658509  1.0000
  H   H35       1.0  0.011689265932787303  0.9458691572861612  0.16871538533499836  1.0000
  H   H36       1.0  0.2976139626538128  0.3529236394164528  0.6047741585692279  1.0000
  H   H37       1.0  0.7789649938968709  0.6396092990146656  0.48840776151227067  1.0000
  H   H38       1.0  0.6335735049845895  0.3746227299303939  0.48860478231091525  1.0000
  H   H39       1.0  0.6321192722630471  0.6084605399684336  0.7520335014841139  1.0000
  H   H40       1.0  0.5097391627669551  0.652228159017909  0.3843286323886659  1.0000
  H   H41       1.0  0.14515614406469274  0.5000232664575394  0.5086690938251053  1.0000
  H   H42       1.0  0.13676400634484753  0.5224516934189721  0.624987635865537  1.0000
  H   H43       1.0  0.032989809821223966  0.4540713546550705  0.5525366728327086  1.0000
  H   H44       1.0  0.07146602875873508  0.5617959699931349  0.6021338262316505  1.0000
  H   H45       1.0  0.2396849931351497  0.20153099587373194  0.3914479996605563  1.0000
  H   H46       1.0  0.4728802979175484  0.1373555121216299  0.5517456528672469  1.0000
  H   H47       1.0  0.34905175778749253  0.008463548426824702  0.46791407477697783  1.0000
  H   H48       1.0  0.39622209863615876  0.9974739446676896  0.5484886794354227  1.0000
  H   H49       1.0  0.4060545736337176  0.9578530068079942  0.4637370077932205  1.0000
  H   H50       1.0  0.3831496412845397  0.6386900315593208  0.9795337368073688  1.0000
  H   H51       1.0  0.43268975892573286  0.6677446181051608  0.07328140275275528  1.0000
  H   H52       1.0  0.6608853994757311  0.7917925835958997  0.5202202874671187  1.0000
  H   H53       1.0  0.36562875196892725  0.3859634448104288  0.2484977395624597  1.0000
  H   H54       1.0  0.39281915886829927  0.6469365933977045  0.5069453489100938  1.0000
  H   H55       1.0  0.05327301711091078  0.6449959829982532  0.5129885637266369  1.0000
  C   C1        1.0  0.7190994373340375  0.6071413866276459  0.6378027981306715  1.0000
  C   C2        1.0  0.6279290724209973  0.7785404609671432  0.5530727677997619  1.0000
  C   C3        1.0  0.4076433653744687  0.45000647616801365  0.29136086699601554  1.0000
  C   C4        1.0  0.5261458022230769  0.36863576936500664  0.5851300439917893  1.0000
  C   C5        1.0  0.3677241317791555  0.5807639757089192  0.4805229642855551  1.0000
  C   C6        1.0  0.4199590994171416  0.52284188713503  0.28699000189865126  1.0000
  C   C7        1.0  0.28728810476377487  0.5167602377226431  0.42598527456443963  1.0000
  C   C8        1.0  0.6023601212524667  0.8265864870446792  0.5940479706691306  1.0000
  C   C9        1.0  0.2795673001794868  0.1663553904065225  0.3002652756968658  1.0000
  C   C10       1.0  0.06126559388366098  0.5257190667002264  0.4596833855886686  1.0000
  C   C11       1.0  0.03645894330970379  0.5920861670988771  0.4612353315829409  1.0000
  C   C12       1.0  0.583898744617308  0.34978435983222067  0.5699539892396785  1.0000
  C   C13       1.0  0.8108344999183574  0.5118484188713809  0.40878042194027137  1.0000
  C   C14       1.0  0.21680065409417165  0.5230757749944528  0.4027076724088515  1.0000
  C   C15       1.0  0.9699752468696304  0.4540986723866639  0.3981868524743889  1.0000
  C   C16       1.0  0.40783070032760804  0.5544940655728041  0.6944508943753362  1.0000
  C   C17       1.0  0.9451618371192867  0.5215767893841275  0.4010876769794934  1.0000
  C   C18       1.0  0.9928738664880896  0.4595075869987186  0.332735824200995  1.0000
  C   C19       1.0  0.08418817227865828  0.5294516434511609  0.39255085635380743  1.0000
  C   C20       1.0  0.9691663724543105  0.5264873585708258  0.33481382552495387  1.0000
  C   C21       1.0  0.05890761671357581  0.5965554970333714  0.39513298745373504  1.0000
  C   C22       1.0  0.8733333885952209  0.516899582788412  0.4056421434761363  1.0000
  C   C23       1.0  0.3497555908678223  0.48395270131113227  0.6918714876999132  1.0000
  C   C24       1.0  0.15573682719833223  0.5289307793241065  0.39265123265538193  1.0000
  C   C25       1.0  0.5854652761592407  0.08751950482828622  0.642418856682994  1.0000
  C   C26       1.0  0.6663232558145893  0.1720376537059636  0.6786143444603924  1.0000
  C   C27       1.0  0.613347093820366  0.30238624960040994  0.5926696920519063  1.0000
  C   C28       1.0  0.6609276965833432  0.43936577222334716  0.3816249636664608  1.0000
  C   C29       1.0  0.6115457597812793  0.9024302715651943  0.6000007796140708  1.0000
  C   C30       1.0  0.552559987768319  0.0969350201321006  0.5679623993053154  1.0000
  C   C31       1.0  0.6342741132908715  0.183521207639167  0.6059689718513184  1.0000
  C   C32       1.0  0.5935178647112451  0.052746849008649094  0.531940572937458  1.0000
  C   C33       1.0  0.6253897796882342  0.04159122180789859  0.60493405170088  1.0000
  C   C34       1.0  0.7402454899574878  0.5084048624952048  0.4143216539238424  1.0000
  C   C35       1.0  0.674574334181557  0.1375045940856623  0.5690763956051937  1.0000
  C   C36       1.0  0.7069125581405018  0.12797414849466549  0.6419486011770772  1.0000
  C   C37       1.0  0.6305479139817011  0.25243552241645534  0.6030593842845704  1.0000
  C   C38       1.0  0.6189494192754311  0.9674356072630845  0.6031123554636083  1.0000
  C   C39       1.0  0.3855713445419156  0.5307428909352652  0.21922219992520545  1.0000
  C   C40       1.0  0.33795139220158876  0.41894233078136983  0.6288345685945558  1.0000
  C   C41       1.0  0.3385616078411574  0.46123168053457436  0.146439172128325  1.0000
  C   C42       1.0  0.3162815070061384  0.4687849557089124  0.08040902614941806  1.0000
  C   C43       1.0  0.33834539712140116  0.5462092735280353  0.08294281342176658  1.0000
  C   C44       1.0  0.379951195537366  0.6149896462909014  0.1557341672473029  1.0000
  C   C45       1.0  0.48099868005872554  0.5857445775836823  0.36074606259850833  1.0000
  C   C46       1.0  0.4031601500204261  0.6075517602199698  0.22213773387797894  1.0000
  C   C47       1.0  0.296088680137217  0.5518786798158859  0.8526150543082808  1.0000
  C   C48       1.0  0.31470864593099895  0.5491334663225942  0.7918734064019262  1.0000
  C   C49       1.0  0.29098466645488236  0.41236568456414363  0.7601211030083519  1.0000
  C   C50       1.0  0.27145534871792176  0.4145966854631028  0.8199451708956857  1.0000
  C   C51       1.0  0.27879854498983997  0.4864790645624524  0.8713278889025204  1.0000
  C   C52       1.0  0.7326665930521088  0.5744887474503173  0.4549051236271707  1.0000
  C   C53       1.0  0.3273125499206203  0.5558538409475063  0.013239577231551933  1.0000
  C   C54       1.0  0.27557607460244077  0.49016614420013127  0.9416835903613291  1.0000
  C   C55       1.0  0.3169329249850819  0.48125426238907204  0.7468173943243102  1.0000
  C   C56       1.0  0.2911307902730585  0.4444747535998062  0.4124463108401599  1.0000
  C   C57       1.0  0.8044871493746796  0.6522087913504961  0.7792916960337237  1.0000
  C   C58       1.0  0.8031058699119386  0.649343341386043  0.8463068382619454  1.0000
  C   C59       1.0  0.8742680471792  0.6949109313753467  0.9147998353907241  1.0000
  C   C60       1.0  0.9506353932673193  0.7453194363397844  0.9196549124224731  1.0000
  C   C61       1.0  0.9530426056221092  0.7407759891576974  0.8509558948246083  1.0000
  C   C62       1.0  0.881717038827695  0.6960794047150145  0.7826446225322597  1.0000
  C   C63       1.0  0.1740988370607254  0.950820838817954  0.1390498088798751  1.0000
  C   C64       1.0  0.5940618852151689  0.3764668241748268  0.5157800132118595  1.0000
  C   C65       1.0  0.23524865194625028  0.029408473264879807  0.19697329274141143  1.0000
  C   C66       1.0  0.135853854105271  0.047884093449070506  0.23437101470961613  1.0000
  C   C67       1.0  0.5641414910479909  0.7795000720972637  0.625709292450395  1.0000
  C   C68       1.0  0.07483051357243642  0.9689195618600479  0.1769311186985902  1.0000
  C   C69       1.0  0.0915905792403819  0.9196565579597052  0.12565231704968488  1.0000
  C   C70       1.0  0.023459405437279167  0.8079348286822424  0.9913573427617948  1.0000
  C   C71       1.0  0.023034627808165415  0.8444305715409685  0.05847086171739589  1.0000
  C   C72       1.0  0.2171409928121477  0.0809247301153562  0.2443920531991637  1.0000
  C   C73       1.0  0.6525749234381735  0.6052760995031505  0.7080928670167452  1.0000
  C   C74       1.0  0.7291723078342472  0.6190616066354836  0.7114493761889094  1.0000
  C   C75       1.0  0.0877020848643255  0.5159894698126379  0.5779160426961312  1.0000
  C   C76       1.0  0.403698130950616  0.009288860427595599  0.5011951083792852  1.0000
  C   C77       1.0  0.3499892437876327  0.2193709067663363  0.298561831901246  1.0000
  C   C78       1.0  0.2816272335471838  0.21683982216395492  0.36669234796436  1.0000
  N   N1        1.0  0.6432567610294129  0.5894331259548339  0.5953363955220468  1.0000
  N   N2        1.0  0.4287892573393324  0.53316196955457  0.6379354707560267  1.0000
  N   N3        1.0  0.6110341047789802  0.46285683614167544  0.4013135132286295  1.0000
  N   N4        1.0  0.3850527674424243  0.44860964132264075  0.5967625205574977  1.0000
  N   N5        1.0  0.6557500757913531  0.5468910662748314  0.44687814614612614  1.0000
  N   N6        1.0  0.5446589365517411  0.40651557362456725  0.4992662421231557  1.0000
  N   N7        1.0  0.6024714792851428  0.5883706345336038  0.6386099062023192  1.0000
  N   N8        1.0  0.5033655024591396  0.5523373122889125  0.4041297026323533  1.0000
  N   N9        1.0  0.11734522926497704  0.5319361246282669  0.5240182861747016  1.0000
  N   N10       1.0  0.4766380413363009  0.08691165491550382  0.52596883814428  1.0000
  N   N11       1.0  0.3777294993281402  0.6350654689508205  0.026079107828046184  1.0000
  N   N12       1.0  0.36723165488165693  0.4647644663908396  0.45722735794723235  1.0000
  N   N13       1.0  0.5668537633013956  0.7097215018213917  0.6050054054860112  1.0000
  N   N14       1.0  0.3901653410444937  0.2949226619119898  0.3587663967277663  1.0000
  N   N15       1.0  0.34766286690402387  0.2931433952874373  0.4014177179005785  1.0000
  N   N16       1.0  0.6065100447156483  0.7091316650341285  0.5598206303481419  1.0000
  N   N17       1.0  0.4581543327429928  0.46891616934303937  0.3614839159004148  1.0000
  N   N18       1.0  0.41411895393665804  0.5482626538558295  0.49892802869405284  1.0000
  N   N19       1.0  0.5030427745016794  0.4017846340615776  0.541797528826514  1.0000
