data_image0
_chemical_formula_structural       Zn8P8H40C24N8O28
_chemical_formula_sum              "Zn8 P8 H40 C24 N8 O28"
_cell_length_a       9.400503208
_cell_length_b       10.467358301955356
_cell_length_c       13.5147
_cell_angle_alpha    107.91135033722213
_cell_angle_beta     90.0
_cell_angle_gamma    90.0

_space_group_name_H-M_alt    "P 1"
_space_group_IT_number       1

loop_
  _space_group_symop_operation_xyz
  'x, y, z'

loop_
  _atom_site_type_symbol
  _atom_site_label
  _atom_site_symmetry_multiplicity
  _atom_site_fract_x
  _atom_site_fract_y
  _atom_site_fract_z
  _atom_site_occupancy
  Zn  Zn1       1.0  0.6087248600830435  0.2349969996953973  0.761639460473738  1.0000
  Zn  Zn2       1.0  0.1087239669393654  0.2650028970921881  0.23836143985997896  1.0000
  Zn  Zn3       1.0  0.39127479865862813  0.7650027938797663  0.2383601203886059  1.0000
  Zn  Zn4       1.0  0.891274628029464  0.7349968964829827  0.7616388809373902  1.0000
  Zn  Zn5       1.0  0.6011518612313012  0.8736850658936605  0.5861694198797525  1.0000
  Zn  Zn6       1.0  0.1011520318604653  0.6263146244690887  0.41383032138127623  1.0000
  Zn  Zn7       1.0  0.3988488612832128  0.1263147276815104  0.4138301609825916  1.0000
  Zn  Zn8       1.0  0.8988486906540487  0.373685169106075  0.5861692594810677  1.0000
  P   P1        1.0  0.6917214808741576  0.1266099071580058  0.5224622606476218  1.0000
  P   P2        1.0  0.19172165150331466  0.3733899896295796  0.4775371598160305  1.0000
  P   P3        1.0  0.3082781778675212  0.873389886417165  0.4775373202147152  1.0000
  P   P4        1.0  0.808278007238357  0.6266098039455912  0.5224624210463134  1.0000
  P   P5        1.0  0.7192051159821276  0.9947056392228575  0.8245348748549048  1.0000
  P   P6        1.0  0.2192042228384494  0.5052940511398987  0.17546486640612366  1.0000
  P   P7        1.0  0.2807945427595442  0.0052941543523133  0.1754647060074319  1.0000
  P   P8        1.0  0.78079437213038  0.4947057424352721  0.8245347144562203  1.0000
  H   H1        1.0  0.6498641471449176  0.0024347286752047  0.9191160619200078  1.0000
  H   H2        1.0  0.1498643177740817  0.4975651681123807  0.08088261860861222  1.0000
  H   H3        1.0  0.3501355115967542  0.9975640608881378  0.08088327978794754  1.0000
  H   H4        1.0  0.85013534096759  0.50243462546279  0.9191169622537245  1.0000
  H   H5        1.0  0.4671058455959169  0.2122531198275865  0.953567749158488  1.0000
  H   H6        1.0  0.9671056749667598  0.2877467769599917  0.04643241124020391  1.0000
  H   H7        1.0  0.5328948769185899  0.7877466737475771  0.046432571638888545  1.0000
  H   H8        1.0  0.0328939837749189  0.7122530166151719  0.9535671696221399  1.0000
  H   H9        1.0  0.2244720259447632  0.1586860769375846  0.004825844346257194  1.0000
  H   H10       1.0  0.7244729190884411  0.3413138198500008  0.9951743160524347  1.0000
  H   H11       1.0  0.7755286965697508  0.8413147206494074  0.9951739756704756  1.0000
  H   H12       1.0  0.2755278034260725  0.65868597372517  0.004826004744941872  1.0000
  H   H13       1.0  0.0284591148027431  0.1118941058415146  0.8710269430407963  1.0000
  H   H14       1.0  0.5284589441735789  0.3881057909460708  0.1289732173578955  1.0000
  H   H15       1.0  0.9715416077117709  0.8881066917454774  0.12897361691096884  1.0000
  H   H16       1.0  0.47154177834093497  0.6118940026291  0.8710263635044484  1.0000
  H   H17       1.0  0.33277793015780327  0.1826879836219035  0.6546816737741779  1.0000
  H   H18       1.0  0.8327777595286392  0.3173109091538535  0.34531750753508567  1.0000
  H   H19       1.0  0.6672217285838755  0.8173118099532674  0.34531790708816607  1.0000
  H   H20       1.0  0.1672218992130396  0.6826878804094889  0.6546818341728625  1.0000
  H   H21       1.0  0.9643866715863609  0.1973244680042328  0.7030273677944904  1.0000
  H   H22       1.0  0.464386842215518  0.3026744247715243  0.2969725534498053  1.0000
  H   H23       1.0  0.035612987155317896  0.8026743215591097  0.296972713848497  1.0000
  H   H24       1.0  0.5356128165261538  0.6973243647918181  0.703027528193175  1.0000
  H   H25       1.0  0.0941215571573935  0.146446168781118  0.6023920109101653  1.0000
  H   H26       1.0  0.5941213865282293  0.3535537280064673  0.3976081494885193  1.0000
  H   H27       1.0  0.9058791653571204  0.853554628805874  0.3976085490415926  1.0000
  H   H28       1.0  0.4058793359862847  0.6464460655687034  0.6023914313738246  1.0000
  H   H29       1.0  0.8937510912022262  0.9881745423023531  0.5981676740113785  1.0000
  H   H30       1.0  0.39375126183139025  0.5118251480603959  0.40183206724965004  1.0000
  H   H31       1.0  0.10624963131228779  0.0118252512728176  0.40183264678599073  1.0000
  H   H32       1.0  0.6062494606831237  0.48817464551476775  0.5981675136126939  1.0000
  H   H33       1.0  0.9621187078903473  0.9597218511985801  0.7032995321798268  1.0000
  H   H34       1.0  0.46211887851951156  0.540277839164176  0.29670020908120165  1.0000
  H   H35       1.0  0.03788095085133139  0.0402779423765907  0.2967007886175494  1.0000
  H   H36       1.0  0.5378807802221672  0.4597219544109947  0.7032993717811352  1.0000
  H   H37       1.0  0.05895109950373719  0.9164188211937798  0.591074291172184  1.0000
  H   H38       1.0  0.5589509288745731  0.5835808691689692  0.40892545008884434  1.0000
  H   H39       1.0  0.9410496230107768  0.0835809723813909  0.4089260296251922  1.0000
  H   H40       1.0  0.4410497936399409  0.4164189244061944  0.5910741307734924  1.0000
  C   C1        1.0  0.3789339699356233  0.1926638451133869  0.8985120321006975  1.0000
  C   C2        1.0  0.8789348630793015  0.3073350476623702  0.10148788914359842  1.0000
  C   C3        1.0  0.6210656888060484  0.8073359484617838  0.10148828869667172  1.0000
  C   C4        1.0  0.1210658594352125  0.6926647459127935  0.8985116917187457  1.0000
  C   C5        1.0  0.24386460482764957  0.1618015256300254  0.92619954895671  1.0000
  C   C6        1.0  0.7438654979713277  0.3381973671457388  0.0737996323525536  1.0000
  C   C7        1.0  0.7561350539140221  0.8381982679451454  0.07380077184065931  1.0000
  C   C8        1.0  0.2561352245431863  0.661802426429432  0.9261999485097903  1.0000
  C   C9        1.0  0.1355267874293986  0.1377694985909628  0.852297535522176  1.0000
  C   C10       1.0  0.6355276805730767  0.3622303981966226  0.1477026248765156  1.0000
  C   C11       1.0  0.8644739350851154  0.8622312989960363  0.14770376436462132  1.0000
  C   C12       1.0  0.36447304194143726  0.6377693953785482  0.8522962160507959  1.0000
  C   C13       1.0  0.30377309988787  0.176325560687971  0.7311427260748148  1.0000
  C   C14       1.0  0.8037729292587059  0.3236743360996073  0.2688574343238699  1.0000
  C   C15       1.0  0.696227622626644  0.8236742328871928  0.26885759472256154  1.0000
  C   C16       1.0  0.19622672948296574  0.6763254574755564  0.7311421465384669  1.0000
  C   C17       1.0  0.1652358353197627  0.1455997868127881  0.7528315574678643  1.0000
  C   C18       1.0  0.6652356646905986  0.3544001099747973  0.24716860293082732  1.0000
  C   C19       1.0  0.8347638234219088  0.8544000067623828  0.24716876332951193  1.0000
  C   C20       1.0  0.3347639940510732  0.6455996836003735  0.7528309779315165  1.0000
  C   C21       1.0  0.0515600058077226  0.1267153283996123  0.6716812126391362  1.0000
  C   C22       1.0  0.5515608989514007  0.3732845683879731  0.3283189477595557  1.0000
  C   C23       1.0  0.948439652933949  0.8732844651755585  0.32831910815824034  1.0000
  C   C24       1.0  0.4484387597902709  0.6267162291990189  0.6716816121922093  1.0000
  N   N1        1.0  0.40818453173172026  0.1992692389089257  0.8025864092326886  1.0000
  N   N2        1.0  0.9081843611025561  0.3007306578786597  0.19741301123096386  1.0000
  N   N3        1.0  0.5918161907827937  0.8007315586780663  0.19741341078403715  1.0000
  N   N4        1.0  0.09181636141195779  0.6992691356965111  0.8025865696313801  1.0000
  N   N5        1.0  0.9901129539617698  0.988702652522214  0.6392747710611176  1.0000
  N   N6        1.0  0.4901120608180989  0.5112970378405421  0.3607249701999109  1.0000
  N   N7        1.0  0.0098877685527441  0.0112971410529568  0.36072554973625165  1.0000
  N   N8        1.0  0.5098875979235798  0.4887027557346287  0.6392746106624332  1.0000
  O   O1        1.0  0.8666206286773103  0.9308113307026815  0.8287008867106279  1.0000
  O   O2        1.0  0.36661973553363225  0.5691883596600746  0.17129959448543275  1.0000
  O   O3        1.0  0.1333790300643685  0.0691884628724893  0.17129869415171584  1.0000
  O   O4        1.0  0.6333788594352043  0.4308114339150961  0.8287007263119364  1.0000
  O   O5        1.0  0.6086089088434221  0.2200522836828469  0.6157405647811345  1.0000
  O   O6        1.0  0.10860801569975109  0.2799476131047385  0.3842603355525895  1.0000
  O   O7        1.0  0.39139287744392687  0.7799485139041451  0.38425999517063053  1.0000
  O   O8        1.0  0.8913916430419278  0.7200521804704323  0.6157399852447868  1.0000
  O   O9        1.0  0.7424506800934196  0.1398598512102538  0.8228932003757594  1.0000
  O   O10       1.0  0.2424487231769064  0.3601390415655104  0.1771059809335043  1.0000
  O   O11       1.0  0.25755004242108726  0.8601389383530958  0.17710688126722834  1.0000
  O   O12       1.0  0.7575498717919302  0.6398607520096604  0.8228935999288325  1.0000
  O   O13       1.0  0.6219667044019772  0.9094670433186778  0.7389296591005207  1.0000
  O   O14       1.0  0.12196581125830619  0.5905326470440784  0.2610700821605079  1.0000
  O   O15       1.0  0.3780340181125368  0.090532750256493  0.2610699217618162  1.0000
  O   O16       1.0  0.8780338474833727  0.4094671465310924  0.738929498701836  1.0000
  O   O17       1.0  0.6009454893002371  0.0970558150823919  0.42318369065358763  1.0000
  O   O18       1.0  0.10094565992940117  0.4029440817051935  0.5768164697451041  1.0000
  O   O19       1.0  0.3990541694414347  0.9029439784927717  0.5768158902087563  1.0000
  O   O20       1.0  0.8990550625851127  0.5970557118699773  0.4231838510522722  1.0000
  O   O21       1.0  0.8353871943064631  0.1918104350622869  0.5052375025265833  1.0000
  O   O22       1.0  0.3353873649356273  0.3081894617252985  0.4947619179370761  1.0000
  O   O23       1.0  0.16461352820805078  0.8081893585128839  0.4947620783357607  1.0000
  O   O24       1.0  0.6646122938060515  0.6918103318498652  0.5052369229902354  1.0000
  O   O25       1.0  0.7344383430585424  0.9926203066626869  0.5437085841272022  1.0000
  O   O26       1.0  0.2344385136876994  0.5073793837000622  0.4562911571338262  1.0000
  O   O27       1.0  0.2655623794559716  0.007379486912476799  0.456291736670167  1.0000
  O   O28       1.0  0.7655622088268075  0.4926204098751015  0.54370916366355  1.0000
