data_image0
_chemical_formula_structural       Zr6H6C52S10N10O52F4
_chemical_formula_sum              "Zr6 H6 C52 S10 N10 O52 F4"
_cell_length_a       16.402003209766608
_cell_length_b       16.479224995470638
_cell_length_c       16.514034424282258
_cell_angle_alpha    61.83965752703642
_cell_angle_beta     60.08062352918796
_cell_angle_gamma    60.298336176471764

_space_group_name_H-M_alt    "P 1"
_space_group_IT_number       1

loop_
  _space_group_symop_operation_xyz
  'x, y, z'

loop_
  _atom_site_type_symbol
  _atom_site_label
  _atom_site_symmetry_multiplicity
  _atom_site_fract_x
  _atom_site_fract_y
  _atom_site_fract_z
  _atom_site_occupancy
  Zr  Zr1       1.0  0.8873595355111165  0.902959540315841  0.5995995673984424  1.0000
  Zr  Zr2       1.0  0.11010734949974219  0.10311402782146935  0.39944484307316225  1.0000
  Zr  Zr3       1.0  0.10184218291910692  0.8948384130796755  0.6085265468638212  1.0000
  Zr  Zr4       1.0  0.894844655287045  0.1121269119116093  0.391349588598672  1.0000
  Zr  Zr5       1.0  0.10749476517308677  0.8942201678442956  0.3907171351956292  1.0000
  Zr  Zr6       1.0  0.889489069138591  0.11224543901222699  0.6088328281503407  1.0000
  H   H1        1.0  0.07868674336025792  0.7535366532477428  0.5767094880281574  1.0000
  H   H2        1.0  0.09092228931791618  0.08047120487874793  0.2501147316451977  1.0000
  H   H3        1.0  0.0819644512240245  0.08389867964493894  0.5911575103895929  1.0000
  H   H4        1.0  0.7430156949911011  0.09452465548918794  0.5805702683619954  1.0000
  H   H5        1.0  0.8554920748837275  0.6494698479849746  0.8377407670522388  1.0000
  H   H6        1.0  0.1585313593987792  0.3402661733177794  0.14470452765755937  1.0000
  C   C1        1.0  0.9914343230186301  0.7406001822676701  0.4866607030654037  1.0000
  C   C2        1.0  0.28123504462249826  0.990032259801346  0.23708218402686038  1.0000
  C   C3        1.0  0.9983484726753603  0.27392191135873367  0.5031076122768994  1.0000
  C   C4        1.0  0.7247436111538761  0.006434004980612038  0.770545937955184  1.0000
  C   C5        1.0  0.9873857587636008  0.7386342366414028  0.7617654207588982  1.0000
  C   C6        1.0  0.7288590870486048  0.00944249704365757  0.4889013179980281  1.0000
  C   C7        1.0  0.012331512040411554  0.26542607846321425  0.23502467024756868  1.0000
  C   C8        1.0  0.27292586842198574  0.9924540667570981  0.5058502107984848  1.0000
  C   C9        1.0  0.2731056247581449  0.7331816859911627  0.4958558290491978  1.0000
  C   C10       1.0  0.9901250795378473  0.0010906392696983572  0.7772705350297712  1.0000
  C   C11       1.0  0.7314470372949983  0.2805528010476692  0.49778015342721454  1.0000
  C   C12       1.0  0.9976585468617076  0.9994875822593273  0.2297855408690737  1.0000
  C   C13       1.0  0.9282124440065258  0.4228565222084911  0.5616554977064752  1.0000
  C   C14       1.0  0.05847096750415643  0.5948822957969142  0.4247637455126636  1.0000
  C   C15       1.0  0.9967192888680502  0.36544827686306297  0.49982127922554287  1.0000
  C   C16       1.0  0.9901416635388004  0.6519497014528781  0.48688728080840354  1.0000
  C   C17       1.0  0.036395053833075404  0.5114127690103915  0.4505826412573697  1.0000
  C   C18       1.0  0.9491716909388258  0.5074096197666691  0.5343644920575484  1.0000
  C   C19       1.0  0.4221376058275368  0.9278099218942373  0.09159871362499661  1.0000
  C   C20       1.0  0.5873998170670377  0.06484755636002162  0.9195772907313112  1.0000
  C   C21       1.0  0.3710966680442527  0.9900872405074355  0.14854759183770497  1.0000
  C   C22       1.0  0.6381762565714766  0.0030662119963623838  0.8621172048925629  1.0000
  C   C23       1.0  0.5091239740985287  0.037581409010698466  0.004047263126814548  1.0000
  C   C24       1.0  0.5017434466610098  0.9537710003859631  0.008046114738235117  1.0000
  C   C25       1.0  0.05752184447524623  0.935116039990803  0.9155046776917785  1.0000
  C   C26       1.0  0.9269012879834121  0.06347668394242585  0.09382629918760448  1.0000
  C   C27       1.0  0.9909104782836948  0.0011655513354043693  0.8659530437470978  1.0000
  C   C28       1.0  0.9935433168168117  0.9976254774899403  0.1435613619381543  1.0000
  C   C29       1.0  0.9502428234864766  0.04203635783242993  0.00991903460460009  1.0000
  C   C30       1.0  0.03514741012331495  0.9569465821678951  0.9988055270882936  1.0000
  C   C31       1.0  0.4158201170745031  0.5972598724863617  0.559808154712499  1.0000
  C   C32       1.0  0.5912399999999208  0.4181833432101953  0.43225586329459303  1.0000
  C   C33       1.0  0.36515397947217576  0.6467861146285259  0.49410846207712206  1.0000
  C   C34       1.0  0.6416394058679414  0.368955546942331  0.4980423642915496  1.0000
  C   C35       1.0  0.508572932094438  0.5016057777927827  0.4539269755750794  1.0000
  C   C36       1.0  0.4975757826365027  0.5131138646576048  0.5386807292695011  1.0000
  C   C37       1.0  0.05787699396559981  0.5927384336748248  0.8884377405429831  1.0000
  C   C38       1.0  0.909865977085708  0.6096173146827939  0.8747053734427013  1.0000
  C   C39       1.0  0.9030469749557782  0.5265927382448297  0.9516754544390479  1.0000
  C   C40       1.0  0.9706818301330883  0.4738425688147675  0.004135799087158917  1.0000
  C   C41       1.0  0.9603868029586877  0.39277441652684797  0.08969347350098647  1.0000
  C   C42       1.0  0.10657422025877851  0.3776783598541798  0.10528811104366298  1.0000
  C   C43       1.0  0.1196838424066228  0.45436455169371476  0.021994247900458733  1.0000
  C   C44       1.0  0.05183295164971446  0.5073855705560819  0.969742574208574  1.0000
  C   C45       1.0  0.9870105202953565  0.6454489308042498  0.8426674200072738  1.0000
  C   C46       1.0  0.024944816609711023  0.34638441196702985  0.14182853627320924  1.0000
  C   C47       1.0  0.41103424975804603  0.061055907208256655  0.4381400405472036  1.0000
  C   C48       1.0  0.5898406782462902  0.9418266821792616  0.557493558914281  1.0000
  C   C49       1.0  0.3620398472695353  0.9942047616765141  0.5044152443049794  1.0000
  C   C50       1.0  0.6394439251633983  0.008063731621270196  0.490585481475236  1.0000
  C   C51       1.0  0.5067707481626726  0.9597072869041058  0.5386918593373905  1.0000
  C   C52       1.0  0.4949965475457888  0.04226915159516406  0.456047769271386  1.0000
  S   S1        1.0  0.08958195850045308  0.41356852562014984  0.40680531767201694  1.0000
  S   S2        1.0  0.8960934884770638  0.6048551543897317  0.5786387246928867  1.0000
  S   S3        1.0  0.42031251745780196  0.08196722570384915  0.10138071398557004  1.0000
  S   S4        1.0  0.5902393574841652  0.9100315172718113  0.9101896549242312  1.0000
  S   S5        1.0  0.8995287874820903  0.09283820836787275  0.9201366112492478  1.0000
  S   S6        1.0  0.0858455783180502  0.9068128231408824  0.08859539718110908  1.0000
  S   S7        1.0  0.41821353832121827  0.5913037536807694  0.40377406128020965  1.0000
  S   S8        1.0  0.5874767996866624  0.42357497779114794  0.5893150608912237  1.0000
  S   S9        1.0  0.4174026021201128  0.9066101916554601  0.5912099748919387  1.0000
  S   S10       1.0  0.5849832782109913  0.09475575841645423  0.4028961388900143  1.0000
  N   N1        1.0  0.8427862335355059  0.3990953834804642  0.6478034357083756  1.0000
  N   N2        1.0  0.1459865404166223  0.6174584655017769  0.34115799092182186  1.0000
  N   N3        1.0  0.3960959064263321  0.84383811561694  0.11441532973127988  1.0000
  N   N4        1.0  0.6105581573472206  0.15086279297115376  0.8959890022784192  1.0000
  N   N5        1.0  0.14383428194123837  0.8508449219397393  0.8863203538680009  1.0000
  N   N6        1.0  0.8399315049421219  0.1478226327568422  0.12158161166895104  1.0000
  N   N7        1.0  0.39113480270291484  0.6255773411103506  0.643627067855597  1.0000
  N   N8        1.0  0.6180201847620455  0.38855882803522224  0.3484004745041815  1.0000
  N   N9        1.0  0.3801972327363501  0.14437071621781433  0.35756048888227804  1.0000
  N   N10       1.0  0.6179415810984425  0.8612977068942983  0.6408239387851322  1.0000
  O   O1        1.0  0.9205820395182868  0.777659168167503  0.5547770291895233  1.0000
  O   O2        1.0  0.24690988866025523  0.058202391457506095  0.27407952381550865  1.0000
  O   O3        1.0  0.0712611376972986  0.23482041319562807  0.4370936579847111  1.0000
  O   O4        1.0  0.7569115387603063  0.9404949866803278  0.7313768394832111  1.0000
  O   O5        1.0  0.05499732733547104  0.7733316871405336  0.7324493080371964  1.0000
  O   O6        1.0  0.7636797712146047  0.07725490627494493  0.422979674531021  1.0000
  O   O7        1.0  0.9393840483680903  0.23606665919119502  0.2697019037426287  1.0000
  O   O8        1.0  0.2362410878139441  0.92652630424233  0.5737204365287665  1.0000
  O   O9        1.0  0.24005081080062507  0.7654515838923289  0.42680905950026465  1.0000
  O   O10       1.0  0.9228436290545403  0.07203131757317746  0.7423648055028664  1.0000
  O   O11       1.0  0.7627282134693161  0.24572732820473678  0.5686749129943961  1.0000
  O   O12       1.0  0.06743748690092141  0.9303561830600628  0.2620821233144283  1.0000
  O   O13       1.0  0.05755273450409975  0.9305525601495931  0.7423232499329656  1.0000
  O   O14       1.0  0.7697440843274346  0.24576804031647  0.4270702011002355  1.0000
  O   O15       1.0  0.9323150744334114  0.07136599198711482  0.2633556911835485  1.0000
  O   O16       1.0  0.23322775366502657  0.7669119480958603  0.5675926496104607  1.0000
  O   O17       1.0  0.9179028054211997  0.777662291148964  0.7262273659273359  1.0000
  O   O18       1.0  0.23939038452066794  0.05981494249013513  0.43770306899735095  1.0000
  O   O19       1.0  0.07837846065559272  0.22981784875087646  0.2740125396590614  1.0000
  O   O20       1.0  0.7631122669825742  0.941273566035399  0.5562996372782719  1.0000
  O   O21       1.0  0.7594892110564614  0.07433271150770072  0.7383553573265754  1.0000
  O   O22       1.0  0.06385990926017349  0.7709378692108119  0.42077027086538266  1.0000
  O   O23       1.0  0.24426673160515106  0.9242453561004427  0.267343252569809  1.0000
  O   O24       1.0  0.9278869483905154  0.24172876833123524  0.5709661117818713  1.0000
  O   O25       1.0  0.8155627112757103  0.06927338200102184  0.5572957482376496  1.0000
  O   O26       1.0  0.057959589436578085  0.0606816281748763  0.5658342810872483  1.0000
  O   O27       1.0  0.06530345789478532  0.058033018132214044  0.32108327707133805  1.0000
  O   O28       1.0  0.05568266908831267  0.8245041357864838  0.5544350334056815  1.0000
  O   O29       1.0  0.1329878640225318  0.9542857234660432  0.45810781995738364  1.0000
  O   O30       1.0  0.9546126309870574  0.9616645581742562  0.4507879823702937  1.0000
  O   O31       1.0  0.95674562452799  0.1343584933554425  0.4589825730841638  1.0000
  O   O32       1.0  0.9500534885215473  0.9624509595249437  0.6307874197896695  1.0000
  O   O33       1.0  0.8607731365240453  0.33761737533873787  0.7224147414807902  1.0000
  O   O34       1.0  0.7599143235365913  0.4453896610370124  0.6382290688816495  1.0000
  O   O35       1.0  0.22562632834270582  0.5774893345947378  0.35652707432954867  1.0000
  O   O36       1.0  0.13262964705685948  0.6721133190495437  0.2627986669954722  1.0000
  O   O37       1.0  0.3428278646513903  0.8581955812132948  0.07300755140947492  1.0000
  O   O38       1.0  0.431733667943824  0.7662016790784207  0.17069410171689722  1.0000
  O   O39       1.0  0.5791549246472556  0.22571796044253037  0.8348330616449998  1.0000
  O   O40       1.0  0.6571200857232712  0.14092318280562205  0.9420575084658509  1.0000
  O   O41       1.0  0.220049932006006  0.8678495773352497  0.8207407888923441  1.0000
  O   O42       1.0  0.1334048079500646  0.7700258416484334  0.9328357303152188  1.0000
  O   O43       1.0  0.843475238601954  0.22917078614730724  0.06345664134533999  1.0000
  O   O44       1.0  0.7696717109769083  0.13074755719192407  0.19720857048591958  1.0000
  O   O45       1.0  0.3636402362791814  0.5682369738654104  0.725306399567927  1.0000
  O   O46       1.0  0.40394912434521046  0.7008640001938106  0.6257718472628396  1.0000
  O   O47       1.0  0.5917032389865611  0.3217589150989326  0.36615759368414297  1.0000
  O   O48       1.0  0.66117094444526  0.43593452509281855  0.2671330876144964  1.0000
  O   O49       1.0  0.3159639816791611  0.22023400847067623  0.377866331289944  1.0000
  O   O50       1.0  0.4240156070794896  0.13236463020727024  0.27572807800397925  1.0000
  O   O51       1.0  0.5860886674852425  0.8816544337306667  0.7166330082389649  1.0000
  O   O52       1.0  0.6679031703536465  0.7794409755672762  0.6288525211823028  1.0000
  F   F1        1.0  0.19919102790160545  0.4807570346613375  0.9900872063733387  1.0000
  F   F2        1.0  0.1339058959750048  0.6227802578504081  0.8574904799961942  1.0000
  F   F3        1.0  0.8281754945680366  0.4954680955123365  0.9789714982560015  1.0000
  F   F4        1.0  0.8844553130603502  0.3626297068400534  0.1205216582356173  1.0000
