data_image0
_chemical_formula_structural       Gd4H56C44N4O32
_chemical_formula_sum              "Gd4 H56 C44 N4 O32"
_cell_length_a       8.38691583
_cell_length_b       11.873540479595775
_cell_length_c       13.3448
_cell_angle_alpha    90.0
_cell_angle_beta     90.0
_cell_angle_gamma    96.27948710031423

_space_group_name_H-M_alt    "P 1"
_space_group_IT_number       1

loop_
  _space_group_symop_operation_xyz
  'x, y, z'

loop_
  _atom_site_type_symbol
  _atom_site_label
  _atom_site_symmetry_multiplicity
  _atom_site_fract_x
  _atom_site_fract_y
  _atom_site_fract_z
  _atom_site_occupancy
  Gd  Gd1       1.0  0.006674996459437896  0.3353888263200702  0.5951786463641255  1.0000
  Gd  Gd2       1.0  0.4933263594236763  0.6646110587023557  0.09517864636412547  1.0000
  Gd  Gd3       1.0  0.9933254156917783  0.6646110587023557  0.4048213536358745  1.0000
  Gd  Gd4       1.0  0.5066752450609542  0.3353888263200702  0.9048213536358745  1.0000
  H   H1        1.0  0.8022564892822572  0.5234640103758892  0.614477549307594  1.0000
  H   H2        1.0  0.697742979137061  0.4765358746465367  0.114477549307594  1.0000
  H   H3        1.0  0.19774273053554478  0.4765358746465367  0.385522450692406  1.0000
  H   H4        1.0  0.30225743301415514  0.5234640103758892  0.885522450692406  1.0000
  H   H5        1.0  0.7802604175663105  0.4697651612421865  0.7253432048438313  1.0000
  H   H6        1.0  0.7197390508530077  0.5302347237802395  0.2253432048438313  1.0000
  H   H7        1.0  0.2197388022514914  0.5302347237802395  0.2746575445117188  1.0000
  H   H8        1.0  0.2802613612982086  0.4697651612421865  0.7746575445117188  1.0000
  H   H9        1.0  0.9382975632945757  0.263402018467879  0.8083867873628705  1.0000
  H   H10       1.0  0.5617030974581567  0.736597866554547  0.3083867873628705  1.0000
  H   H11       1.0  0.061702848856640485  0.736597866554547  0.1916132126371295  1.0000
  H   H12       1.0  0.43829731469305233  0.263402018467879  0.6916132126371295  1.0000
  H   H13       1.0  0.1269452202872969  0.25308114999354814  0.7986803848690158  1.0000
  H   H14       1.0  0.3730549432624031  0.7469187350288709  0.2986803848690158  1.0000
  H   H15       1.0  0.8730551918639192  0.7469187350288709  0.2013196151309842  1.0000
  H   H16       1.0  0.6269442765553989  0.25308114999354814  0.701319615130984  1.0000
  H   H17       1.0  0.1544456822658873  0.1984223185939129  0.379657244769497  1.0000
  H   H18       1.0  0.34555435008103785  0.8015767191361363  0.879657244769497  1.0000
  H   H19       1.0  0.845554729885329  0.8015775664285132  0.620342755230503  1.0000
  H   H20       1.0  0.6544448697367569  0.19842316588628964  0.120342755230503  1.0000
  H   H21       1.0  0.058562092323583684  0.0504926947697868  0.2525710389065381  1.0000
  H   H22       1.0  0.44143913235675564  0.9495063429602624  0.7525710389065381  1.0000
  H   H23       1.0  0.941439380958272  0.9495063429602624  0.7474289610934619  1.0000
  H   H24       1.0  0.5585600874610392  0.0504935420621635  0.2474289610934619  1.0000
  H   H25       1.0  0.8049654098519666  0.9266946902277768  0.2850563515376763  1.0000
  H   H26       1.0  0.6950352509007587  0.0733051947946493  0.7850556021821261  1.0000
  H   H27       1.0  0.1950350022992424  0.0733051947946493  0.7149436484623237  1.0000
  H   H28       1.0  0.30496516125045053  0.9266946902277768  0.21494439781787378  1.0000
  H   H29       1.0  0.6500578921081227  0.9588833277238609  0.4438020802110216  1.0000
  H   H30       1.0  0.8499427686446096  0.0411165572985652  0.9438028295665716  1.0000
  H   H31       1.0  0.3499425200430863  0.0411165572985652  0.5561979197889784  1.0000
  H   H32       1.0  0.1500564511731923  0.9588833277238609  0.0561979197889784  1.0000
  H   H33       1.0  0.52288046639012  0.2276217085752208  0.5017145255080635  1.0000
  H   H34       1.0  0.9771203255653802  0.7723790237395818  0.0017137761525063  1.0000
  H   H35       1.0  0.4771188846304497  0.7723790237395818  0.4982854744919364  1.0000
  H   H36       1.0  0.022878894252414697  0.2276208612828441  0.9982862238474935  1.0000
  H   H37       1.0  0.5695390199011215  0.37262054805876244  0.5248965889335153  1.0000
  H   H38       1.0  0.9304616408516111  0.6273793369636635  0.024896588933515297  1.0000
  H   H39       1.0  0.4304615234528626  0.6273801842560404  0.4751041604220347  1.0000
  H   H40       1.0  0.06953877129960521  0.37262054805876244  0.9751034110664845  1.0000
  H   H41       1.0  0.47807854017550266  0.41503854645218763  0.3471097356273631  1.0000
  H   H42       1.0  0.021921623374197494  0.5849613385702314  0.847109735627363  1.0000
  H   H43       1.0  0.5219218719757137  0.5849613385702314  0.6528902643726369  1.0000
  H   H44       1.0  0.9780787887770185  0.41503854645218763  0.1528902643726369  1.0000
  H   H45       1.0  0.43128790451370236  0.2679316435285273  0.3272510640848836  1.0000
  H   H46       1.0  0.06871345136941187  0.7320682414938915  0.8272510640848836  1.0000
  H   H47       1.0  0.5687125076375139  0.7320682414938915  0.6727489359151164  1.0000
  H   H48       1.0  0.9312869607818044  0.2679316435285273  0.1727489359151164  1.0000
  H   H49       1.0  0.7208375880148311  0.238617021783611  0.35733619087584856  1.0000
  H   H50       1.0  0.7791618804044872  0.761382863238815  0.8573361908758483  1.0000
  H   H51       1.0  0.279161631802971  0.761382863238815  0.6426638091241514  1.0000
  H   H52       1.0  0.22083853174672893  0.238617021783611  0.1426638091241514  1.0000
  H   H53       1.0  0.6892028250492359  0.32607454119255413  0.2520682213296581  1.0000
  H   H54       1.0  0.8107978357034966  0.6739253438298718  0.752068221329658  1.0000
  H   H55       1.0  0.3107975871019804  0.6739253438298718  0.7479317786703419  1.0000
  H   H56       1.0  0.18920257644771968  0.32607454119255413  0.24793177867034186  1.0000
  C   C1        1.0  0.043429074599678985  0.143316116817914  0.3912707571488525  1.0000
  C   C2        1.0  0.4565709577472461  0.8566829209121354  0.8912700077932953  1.0000
  C   C3        1.0  0.9565725298849513  0.8566837682045121  0.6087299922067045  1.0000
  C   C4        1.0  0.5434282620705557  0.1433169641102907  0.10872999220670469  1.0000
  C   C5        1.0  0.990457824492843  0.0609423516857959  0.3207728853186254  1.0000
  C   C6        1.0  0.5095428362598895  0.9390575333366301  0.8207728853186252  1.0000
  C   C7        1.0  0.0095439111945623  0.9390583806290139  0.6792278640369247  1.0000
  C   C8        1.0  0.4904575758913268  0.0609423516857959  0.1792271146813746  1.0000
  C   C9        1.0  0.8480239485982324  0.9918735038109219  0.3388248606198658  1.0000
  C   C10       1.0  0.6519753886183111  0.008125533919120203  0.8388241112643158  1.0000
  C   C11       1.0  0.1519751400167948  0.008125533919120203  0.6611766380912414  1.0000
  C   C12       1.0  0.34802383119949093  0.9918743511033057  0.1611758887356842  1.0000
  C   C13       1.0  0.7636087095522868  0.0082712682083894  0.4264679875307208  1.0000
  C   C14       1.0  0.7363919512004458  0.9917286168140366  0.9264679875307209  1.0000
  C   C15       1.0  0.2363893179321011  0.9917286168140366  0.5735312631137219  1.0000
  C   C16       1.0  0.263606076283935  0.0082712682083894  0.0735320124692791  1.0000
  C   C17       1.0  0.8237103600114182  0.0937079952922915  0.49234533301360967  1.0000
  C   C18       1.0  0.6762892396106678  0.9062927370225111  0.9923445836580524  1.0000
  C   C19       1.0  0.1762888598063838  0.9062918897301273  0.5076554163419473  1.0000
  C   C20       1.0  0.3237101114099019  0.0937079952922915  0.0076554163419473  1.0000
  C   C21       1.0  0.7291734584705123  0.11729830972151231  0.5846741802050204  1.0000
  C   C22       1.0  0.7708260099488057  0.8827015753009135  0.0846749295605775  1.0000
  C   C23       1.0  0.27082563014451466  0.8827007280085297  0.4153250704394225  1.0000
  C   C24       1.0  0.22917334107176393  0.117299157013889  0.9153250704394225  1.0000
  C   C25       1.0  0.321832310463627  0.31756179465600815  0.5197702475870756  1.0000
  C   C26       1.0  0.17816785308607308  0.6824380903664107  0.019770247587075598  1.0000
  C   C27       1.0  0.6781692940210037  0.6824380903664107  0.4802290030573673  1.0000
  C   C28       1.0  0.8218313667317289  0.31756179465600815  0.9802297524129244  1.0000
  C   C29       1.0  0.4893276461134093  0.3113858805020513  0.4809656195671721  1.0000
  C   C30       1.0  0.010671325102869389  0.6886140045203746  0.9809648702116147  1.0000
  C   C31       1.0  0.5106752819074103  0.6886148518127515  0.5190343804328279  1.0000
  C   C32       1.0  0.9893277635121505  0.3113850332096746  0.0190343804328279  1.0000
  C   C33       1.0  0.5113466436629039  0.33128369474153635  0.3685825190336302  1.0000
  C   C34       1.0  0.9886540170898285  0.6687161902808897  0.8685832683891874  1.0000
  C   C35       1.0  0.48865376848831227  0.6687161902808897  0.6314167316108125  1.0000
  C   C36       1.0  0.011346395061387697  0.33128369474153635  0.1314174809663697  1.0000
  C   C37       1.0  0.6843325777015963  0.32069508187529294  0.334143636472632  1.0000
  C   C38       1.0  0.8156668907177149  0.679304803147133  0.8341436364726319  1.0000
  C   C39       1.0  0.3156666421161987  0.679304803147133  0.665856363527368  1.0000
  C   C40       1.0  0.18433352143349419  0.32069508187529294  0.165856363527368  1.0000
  C   C41       1.0  0.799565253843312  0.4154943897523467  0.376972303818718  1.0000
  C   C42       1.0  0.7004354069094205  0.5845054952700792  0.8769715544631607  1.0000
  C   C43       1.0  0.2004351583079043  0.5845054952700792  0.6230284455368391  1.0000
  C   C44       1.0  0.2995650052417957  0.4154943897523467  0.12302844553683907  1.0000
  N   N1        1.0  0.9618591553292576  0.1610304585954978  0.4756047299322574  1.0000
  N   N2        1.0  0.5381403130900535  0.838969426426921  0.9756039805767074  1.0000
  N   N3        1.0  0.03814125682195877  0.838969426426921  0.5243960194232926  1.0000
  N   N4        1.0  0.46185890672774116  0.1610304585954978  0.0243952700677426  1.0000
  O   O1        1.0  0.6111589208671617  0.050687572017061214  0.6092283136502629  1.0000
  O   O2        1.0  0.8888408099576991  0.9493140075901183  0.109228313650263  1.0000
  O   O3        1.0  0.38884056135618295  0.9493140075901183  0.390770936994187  1.0000
  O   O4        1.0  0.1111586722656384  0.050687572017061214  0.890770936994187  1.0000
  O   O5        1.0  0.777982899554864  0.2112613400200232  0.6314497032551998  1.0000
  O   O6        1.0  0.7220189535312825  0.7887385450023958  0.1314497032551998  1.0000
  O   O7        1.0  0.22201751259634506  0.7887385450023958  0.3685502967448002  1.0000
  O   O8        1.0  0.2779814586199336  0.2112613400200232  0.8685502967448002  1.0000
  O   O9        1.0  0.22038372800127348  0.3687967175502109  0.4701778970085755  1.0000
  O   O10       1.0  0.2796163043456517  0.6312023201798312  0.9701786463641255  1.0000
  O   O11       1.0  0.7796166841499426  0.631203167472215  0.5298213536358745  1.0000
  O   O12       1.0  0.7203839766027896  0.3687967175502109  0.0298221029914245  1.0000
  O   O13       1.0  0.2795548411694142  0.2704938556840446  0.6032829266830504  1.0000
  O   O14       1.0  0.22044532238027872  0.7295060293383744  0.1032836760386076  1.0000
  O   O15       1.0  0.7204443786483807  0.7295060293383744  0.3967170733169496  1.0000
  O   O16       1.0  0.7795550897709305  0.2704938556840446  0.8967170733169494  1.0000
  O   O17       1.0  0.8789121620078078  0.4000219836108343  0.4556456447455161  1.0000
  O   O18       1.0  0.6210873064115036  0.5999779014115917  0.955644895389966  1.0000
  O   O19       1.0  0.12108705780998719  0.5999779014115917  0.5443551046100339  1.0000
  O   O20       1.0  0.3789131057397057  0.4000219836108343  0.0443543552544838  1.0000
  O   O21       1.0  0.8093214184288299  0.5119933661426188  0.33324440980756254  1.0000
  O   O22       1.0  0.6906780499904812  0.48800651887980717  0.8332451591631198  1.0000
  O   O23       1.0  0.19067899372237915  0.48800651887980717  0.6667548408368802  1.0000
  O   O24       1.0  0.3093211698273137  0.5119933661426188  0.1667555901924374  1.0000
  O   O25       1.0  0.8307083153882643  0.4611583652515279  0.6580360889634917  1.0000
  O   O26       1.0  0.6692911530310467  0.538841519770898  0.15803608896349164  1.0000
  O   O27       1.0  0.1692920967629448  0.538841519770898  0.34196391103650825  1.0000
  O   O28       1.0  0.330708066786748  0.4611583652515279  0.841963911036508  1.0000
  O   O29       1.0  0.03137498001095199  0.2768358391443826  0.7623403872669527  1.0000
  O   O30       1.0  0.4686251835387409  0.7231640458780362  0.2623403872669527  1.0000
  O   O31       1.0  0.9686254321402641  0.7231640458780362  0.23765961273304725  1.0000
  O   O32       1.0  0.5313752286124682  0.2768358391443826  0.7376596127330473  1.0000
