data_image0
_chemical_formula_structural       Mn2Sn2H22C30Se6N6
_chemical_formula_sum              "Mn2 Sn2 H22 C30 Se6 N6"
_cell_length_a       9.772416928664901
_cell_length_b       9.933397093539092
_cell_length_c       10.781773022478216
_cell_angle_alpha    107.57070860456851
_cell_angle_beta     97.32196911702673
_cell_angle_gamma    115.24264610442282

_space_group_name_H-M_alt    "P 1"
_space_group_IT_number       1

loop_
  _space_group_symop_operation_xyz
  'x, y, z'

loop_
  _atom_site_type_symbol
  _atom_site_label
  _atom_site_symmetry_multiplicity
  _atom_site_fract_x
  _atom_site_fract_y
  _atom_site_fract_z
  _atom_site_occupancy
  Mn  Mn1       1.0  0.6491452355604465  0.19249694868067724  0.762342313679994  1.0000
  Mn  Mn2       1.0  0.3508605485806057  0.8075043055910525  0.2376539952555061  1.0000
  Sn  Sn1       1.0  0.18181524612902678  0.0062402029568672975  0.5422188461612194  1.0000
  Sn  Sn2       1.0  0.8181993085202134  0.9937707846394511  0.45778673454793734  1.0000
  H   H1        1.0  0.521557387334738  0.8309130846396113  0.5516031492454514  1.0000
  H   H2        1.0  0.4784370313271182  0.16908815284723028  0.4483955305059195  1.0000
  H   H3        1.0  0.43047964374783737  0.5566890138717183  0.5580599075066458  1.0000
  H   H4        1.0  0.5695116789708193  0.4433121944875395  0.44193283571962627  1.0000
  H   H5        1.0  0.4702685186663871  0.5368873717180093  0.7847861780682306  1.0000
  H   H6        1.0  0.52972287484841  0.4631053590451016  0.21520424189086634  1.0000
  H   H7        1.0  0.5984804751106907  0.7912931942551678  0.9970198493340373  1.0000
  H   H8        1.0  0.4015119503851707  0.20869954621713294  0.0029725494667615995  1.0000
  H   H9        1.0  0.7135028511355017  0.013330866510507597  0.16429129466907708  1.0000
  H   H10       1.0  0.2864875067131434  0.9866618787785479  0.8357036451607055  1.0000
  H   H11       1.0  0.8413246622762499  0.2897855452037702  0.34924421612905826  1.0000
  H   H12       1.0  0.15866995400411812  0.7102096407172452  0.6507537499713505  1.0000
  H   H13       1.0  0.9034530421511275  0.5290848760106853  0.2894144870161951  1.0000
  H   H14       1.0  0.09655054699389606  0.47091396050963386  0.710583681719555  1.0000
  H   H15       1.0  0.9338280137295385  0.7141109920509905  0.22065341331397545  1.0000
  H   H16       1.0  0.06616485723872502  0.28588058699995134  0.7793517033306043  1.0000
  H   H17       1.0  0.9811496025130566  0.9175131889241042  0.12201994904741288  1.0000
  H   H18       1.0  0.018843067678055502  0.08248446246564359  0.8779914515730309  1.0000
  H   H19       1.0  0.9072588230265382  0.8242871985106957  0.8631386355694132  1.0000
  H   H20       1.0  0.09274746156026478  0.17572380489048806  0.1368761808682137  1.0000
  H   H21       1.0  0.7829352521438293  0.5285778060064174  0.7215734042859694  1.0000
  H   H22       1.0  0.21708046288816255  0.47143560694293263  0.27843297971865155  1.0000
  C   C1        1.0  0.5376578001914182  0.8174173038737461  0.648332244136533  1.0000
  C   C2        1.0  0.4623328139341751  0.1825802761651544  0.3516612729882595  1.0000
  C   C3        1.0  0.4877637269642676  0.6651377640729946  0.6524172083373683  1.0000
  C   C4        1.0  0.5122221748341502  0.33485859214992075  0.3475754188727648  1.0000
  C   C5        1.0  0.5088161405355223  0.6548186640047433  0.7787918012207555  1.0000
  C   C6        1.0  0.4911721528245465  0.34517406532808775  0.2212001093131092  1.0000
  C   C7        1.0  0.580420901281741  0.7966355265251861  0.8968981985358507  1.0000
  C   C8        1.0  0.4195693297445331  0.20335479273354198  0.10309513167772619  1.0000
  C   C9        1.0  0.6262447872829283  0.9450420251276408  0.8851532652345849  1.0000
  C   C10       1.0  0.37374776450886327  0.05495314483715668  0.11484167156991278  1.0000
  C   C11       1.0  0.7018204500115529  0.10162328242344638  0.003936443658830099  1.0000
  C   C12       1.0  0.2981778466149193  0.8983731176043644  0.996060433514543  1.0000
  C   C13       1.0  0.7406959151324274  0.11892362125184518  0.13946296406909647  1.0000
  C   C14       1.0  0.2593003148997111  0.8810727766683965  0.8605345973582954  1.0000
  C   C15       1.0  0.812215690632378  0.27360251531946733  0.24267671442650846  1.0000
  C   C16       1.0  0.18778351273211058  0.7263914580007195  0.757317746809896  1.0000
  C   C17       1.0  0.8442631933194845  0.4071504898798677  0.20971615339704633  1.0000
  C   C18       1.0  0.15573923438989815  0.5928459282117371  0.7902830688182119  1.0000
  C   C19       1.0  0.802912639435938  0.3816501599002179  0.07225406552569065  1.0000
  C   C20       1.0  0.1970855298417219  0.6183438175594272  0.9277421304189486  1.0000
  C   C21       1.0  0.8328048621901015  0.5124558157030631  0.02352973276499156  1.0000
  C   C22       1.0  0.16719711215027638  0.4875418157423609  0.9764706974187545  1.0000
  C   C23       1.0  0.9005219423376614  0.6757677402145175  0.11039496196133297  1.0000
  C   C24       1.0  0.0994789968629988  0.3242299022946895  0.8896090597056199  1.0000
  C   C25       1.0  0.928186041511722  0.7903534169553408  0.05381217514587166  1.0000
  C   C26       1.0  0.07181353494971178  0.20964788292613423  0.9462001123639394  1.0000
  C   C27       1.0  0.8875830717296508  0.7397439819547598  0.9126712841048386  1.0000
  C   C28       1.0  0.11242412064805048  0.26026458781446843  0.08733925962086175  1.0000
  C   C29       1.0  0.8181944778674219  0.5747481075656038  0.8327048223627428  1.0000
  C   C30       1.0  0.18181904322142364  0.42526288070801127  0.16730156466717006  1.0000
  Se  Se1       1.0  0.41081036759987904  0.23219931850270825  0.7456802496343043  1.0000
  Se  Se2       1.0  0.5892038583969563  0.7678153223264059  0.2543318622094829  1.0000
  Se  Se3       1.0  0.22220725083096224  0.7740075802974216  0.42042906353212556  1.0000
  Se  Se4       1.0  0.7777920788294566  0.22598882251526212  0.5795679357079705  1.0000
  Se  Se5       1.0  0.0808279868711566  0.13040658814776404  0.39696044944664516  1.0000
  Se  Se6       1.0  0.919200890240397  0.8696213832425099  0.6030487015686672  1.0000
  N   N1        1.0  0.6032972311956186  0.9542044121377911  0.761525061841503  1.0000
  N   N2        1.0  0.39669486722716124  0.04579197118081879  0.23847108293146846  1.0000
  N   N3        1.0  0.7327463267283463  0.23131015717163445  0.97304011897981  1.0000
  N   N4        1.0  0.26725668011953724  0.7686874805208246  0.026961361658152255  1.0000
  N   N5        1.0  0.7910481336074395  0.4637430750045012  0.886227154304187  1.0000
  N   N6        1.0  0.20896352219066466  0.5362618353605766  0.11377270461638733  1.0000
