data_image0
_chemical_formula_structural       Ni2H18C12S2N6O12
_chemical_formula_sum              "Ni2 H18 C12 S2 N6 O12"
_cell_length_a       8.622039100055279
_cell_length_b       8.23829443987
_cell_length_c       8.475397511495085
_cell_angle_alpha    102.28330044978377
_cell_angle_beta     98.4702414637299
_cell_angle_gamma    108.45846996409266

_space_group_name_H-M_alt    "P 1"
_space_group_IT_number       1

loop_
  _space_group_symop_operation_xyz
  'x, y, z'

loop_
  _atom_site_type_symbol
  _atom_site_label
  _atom_site_symmetry_multiplicity
  _atom_site_fract_x
  _atom_site_fract_y
  _atom_site_fract_z
  _atom_site_occupancy
  Ni  Ni1       1.0  0.7934385286604949  0.7939695860884157  0.7261850374131453  1.0000
  Ni  Ni2       1.0  0.206564311894617  0.2060214019789797  0.27381113563838966  1.0000
  H   H1        1.0  0.9240420371684622  0.6517950572257265  0.5410595929416857  1.0000
  H   H2        1.0  0.0759603201958257  0.3482013603223706  0.4589434624586062  1.0000
  H   H3        1.0  0.06005628446579434  0.7860763585215763  0.7066613649590324  1.0000
  H   H4        1.0  0.9399444399300235  0.2139187185738152  0.293340001486058  1.0000
  H   H5        1.0  0.08736197171695893  0.644304795096197  0.8479386190941794  1.0000
  H   H6        1.0  0.9126331139392931  0.3556943265908786  0.15206267654781408  1.0000
  H   H7        1.0  0.26712587738786897  0.7891528431486491  0.9020757407798213  1.0000
  H   H8        1.0  0.7328713311156391  0.2108422242976573  0.09792272922890524  1.0000
  H   H9        1.0  0.21330321419527817  0.41875998137692244  0.924020621860464  1.0000
  H   H10       1.0  0.7866929777668472  0.5812456841265286  0.07597385464364945  1.0000
  H   H11       1.0  0.1207573508598827  0.08423965746662529  0.8847846706901449  1.0000
  H   H12       1.0  0.8792493586833245  0.9157658804415335  0.1152078402018049  1.0000
  H   H13       1.0  0.644157949054957  0.022919337840456  0.6286381225381203  1.0000
  H   H14       1.0  0.3558373865566578  0.977077112590308  0.37136269162985497  1.0000
  H   H15       1.0  0.5442701817873044  0.43279551297041496  0.8626774827332752  1.0000
  H   H16       1.0  0.45573001605268365  0.5672116501631308  0.13733087397817198  1.0000
  H   H17       1.0  0.4159485632217752  0.4381520389223611  0.680855243264581  1.0000
  H   H18       1.0  0.5840509514182344  0.5618497205034955  0.3191472387528832  1.0000
  C   C1        1.0  0.08712079551798269  0.32845182433452175  0.8557764461406376  1.0000
  C   C2        1.0  0.9128791556038536  0.6715511447744759  0.14421807756554014  1.0000
  C   C3        1.0  0.0365136711057232  0.1453892505399637  0.8354878565740761  1.0000
  C   C4        1.0  0.9634893226427863  0.8546123272051888  0.16450449919820898  1.0000
  C   C5        1.0  0.7717291210768735  0.1113547305155791  0.6926016558654381  1.0000
  C   C6        1.0  0.2282717965333702  0.8886442623064994  0.30739460150266495  1.0000
  C   C7        1.0  0.8301894715418072  0.2929370956570806  0.7059436225239606  1.0000
  C   C8        1.0  0.16980932656516495  0.7070659687993838  0.2940566443575604  1.0000
  C   C9        1.0  0.5355164938588004  0.5115778151324193  0.7738359625198967  1.0000
  C   C10       1.0  0.46449069229403506  0.4884291411822872  0.22616279662245375  1.0000
  C   C11       1.0  0.5294903889521619  0.6874209559259015  0.8637872535826288  1.0000
  C   C12       1.0  0.4704979082936447  0.3125823230939274  0.1362208983117554  1.0000
  S   S1        1.0  0.7003541015564919  0.3793764571881511  0.5846217020986728  1.0000
  S   S2        1.0  0.2996356386805701  0.6206173812768371  0.41537893334860587  1.0000
  N   N1        1.0  0.6798889535941584  0.5479194555896643  0.695927669525588  1.0000
  N   N2        1.0  0.3201161631083734  0.45208495058920306  0.3040773589728616  1.0000
  N   N3        1.0  0.9848888215758363  0.4023987755246523  0.7905792256626823  1.0000
  N   N4        1.0  0.015107417095279609  0.5976002508149563  0.20941632680396788  1.0000
  N   N5        1.0  0.8778385071252758  0.03907329813979029  0.7561903807746971  1.0000
  N   N6        1.0  0.12216847243719532  0.9609296728737672  0.24380875192407805  1.0000
  O   O1        1.0  0.6427009507687272  0.8294313705735236  0.8505406520623919  1.0000
  O   O2        1.0  0.35730532229265316  0.17057295765148686  0.14945981714085116  1.0000
  O   O3        1.0  0.42298388344298843  0.6954777210972838  0.9469646177495504  1.0000
  O   O4        1.0  0.5770251722577484  0.30452783483934087  0.053030613353406864  1.0000
  O   O5        1.0  0.5413257309644379  0.23170424110966076  0.5201920431747736  1.0000
  O   O6        1.0  0.45867029787910946  0.7682976652096515  0.47981819732759584  1.0000
  O   O7        1.0  0.8006683255855761  0.4351657882853104  0.4672663642715945  1.0000
  O   O8        1.0  0.19932700668206133  0.5648306447518435  0.5327332660162368  1.0000
  O   O9        1.0  0.9649099934641185  0.7774558370189126  0.6111447526851705  1.0000
  O   O10       1.0  0.0350951498835101  0.22254182563440852  0.3888542484949724  1.0000
  O   O11       1.0  0.1472167216380668  0.775400016035803  0.8737224661964047  1.0000
  O   O12       1.0  0.8527797970842671  0.224596495590049  0.1262832597174963  1.0000
