data_image0
_chemical_formula_structural       Mn2Cu2H34C26N6O18
_chemical_formula_sum              "Mn2 Cu2 H34 C26 N6 O18"
_cell_length_a       9.376436334797406
_cell_length_b       9.562663499701003
_cell_length_c       10.736855691050485
_cell_angle_alpha    82.05746624935996
_cell_angle_beta     71.63221738608246
_cell_angle_gamma    82.44339913591462

_space_group_name_H-M_alt    "P 1"
_space_group_IT_number       1

loop_
  _space_group_symop_operation_xyz
  'x, y, z'

loop_
  _atom_site_type_symbol
  _atom_site_label
  _atom_site_symmetry_multiplicity
  _atom_site_fract_x
  _atom_site_fract_y
  _atom_site_fract_z
  _atom_site_occupancy
  Mn  Mn1       1.0  0.16039545159504343  0.0070651561030104  0.7392349625186299  1.0000
  Mn  Mn2       1.0  0.8398430373218487  0.9930365297701726  0.2586819766383357  1.0000
  Cu  Cu1       1.0  0.012989104890223797  0.5795198962763307  0.6582368545539694  1.0000
  Cu  Cu2       1.0  0.9871893402702908  0.42060828098813363  0.34209841072149766  1.0000
  H   H1        1.0  0.8896886228193353  0.8139325026282763  0.7414159647037051  1.0000
  H   H2        1.0  0.11125497700101758  0.18556027509728784  0.2619382160341672  1.0000
  H   H3        1.0  0.7698195607455889  0.738925963294015  0.6936656975927135  1.0000
  H   H4        1.0  0.23047006902915979  0.2618850576807858  0.30955854775707786  1.0000
  H   H5        1.0  0.4251199229501239  0.1164411266989376  0.7238871436539113  1.0000
  H   H6        1.0  0.5727321259197352  0.8859474433711229  0.2802010481237431  1.0000
  H   H7        1.0  0.431320902556756  0.9524318469275882  0.7448785628483847  1.0000
  H   H8        1.0  0.5690971127854354  0.05009565365312339  0.2605100928302447  1.0000
  H   H9        1.0  0.0353024723882527  0.8571703155830829  0.002595790222578435  1.0000
  H   H10       1.0  0.964653238955826  0.14315024421930642  0.9958702222590787  1.0000
  H   H11       1.0  0.08312187219954129  0.7766075209756238  0.8704512437971347  1.0000
  H   H12       1.0  0.917280373653668  0.22379670339854837  0.12795695017561579  1.0000
  H   H13       1.0  0.9163942760520101  0.0362332744741565  0.639578355221751  1.0000
  H   H14       1.0  0.08263816257751695  0.9628742913172489  0.3587970039094159  1.0000
  H   H15       1.0  0.029271460771603555  0.8959505916794301  0.5769408320878142  1.0000
  H   H16       1.0  0.969373215466675  0.1027775063658609  0.4222686009263937  1.0000
  H   H17       1.0  0.8537048603259975  0.4091123378793853  0.987291842434658  1.0000
  H   H18       1.0  0.14583476369409  0.587308832268377  0.01190308053443091  1.0000
  H   H19       1.0  0.7581777083082955  0.3129136477698964  0.9138236160201317  1.0000
  H   H20       1.0  0.24126114272893776  0.6857980760820581  0.08361917842128716  1.0000
  H   H21       1.0  0.6380280818384136  0.5370956108965855  0.8296344385333542  1.0000
  H   H22       1.0  0.3622821527199349  0.4639907957843192  0.17032919137842129  1.0000
  H   H23       1.0  0.6066232031387315  0.526999362366645  0.0011976961565664166  1.0000
  H   H24       1.0  0.39332029313641215  0.4710354509854041  0.9989986181715976  1.0000
  H   H25       1.0  0.6630789796583372  0.7646918649143187  0.9239046338896415  1.0000
  H   H26       1.0  0.3394164001794309  0.23358955163359948  0.08038145396793792  1.0000
  H   H27       1.0  0.8323449983014368  0.6792170269978967  0.9489226126465128  1.0000
  H   H28       1.0  0.1700762807741967  0.3160475904196431  0.053304357839557816  1.0000
  H   H29       1.0  0.42891729440843557  0.2677348281299602  0.4645261354046255  1.0000
  H   H30       1.0  0.5721158989517362  0.73290068489554  0.5348337704981745  1.0000
  H   H31       1.0  0.6787253792179797  0.5797474202457593  0.1849884965789883  1.0000
  H   H32       1.0  0.3209612694267534  0.4218921847489624  0.8148146132916665  1.0000
  H   H33       1.0  0.44775768369770913  0.7542711259477812  0.2411006475005522  1.0000
  H   H34       1.0  0.5514464099803219  0.24668300786144204  0.7587779005901467  1.0000
  C   C1        1.0  0.1603414522574482  0.3093892283011995  0.6274592501656712  1.0000
  C   C2        1.0  0.8399704074036266  0.6907335003957725  0.37174990045002687  1.0000
  C   C3        1.0  0.0290682576798673  0.30080995610608596  0.7543767234767172  1.0000
  C   C4        1.0  0.9709947856055765  0.6989278806766848  0.24453504950273702  1.0000
  C   C5        1.0  0.8114470802564571  0.41219081885797226  0.9018605225299722  1.0000
  C   C6        1.0  0.1880990501919797  0.5861733409213415  0.09710298286103126  1.0000
  C   C7        1.0  0.6939162713396385  0.538887609926647  0.9053428598642626  1.0000
  C   C8        1.0  0.3062541702651629  0.46010738494810255  0.09509668610107978  1.0000
  C   C9        1.0  0.7555975190250807  0.681732427546571  0.8892759969191816  1.0000
  C   C10       1.0  0.2459572669156955  0.3162733320635809  0.11325801795618422  1.0000
  C   C11       1.0  0.19719201255553997  0.7385942852202801  0.4183840925089156  1.0000
  C   C12       1.0  0.801571198636239  0.2609150036532384  0.5809167312312765  1.0000
  C   C13       1.0  0.3151420061630574  0.6152579129008088  0.3924618431904534  1.0000
  C   C14       1.0  0.6845479717868698  0.3850216478052317  0.6071077511901635  1.0000
  C   C15       1.0  0.3055442776651702  0.47512342038012173  0.45919745191403644  1.0000
  C   C16       1.0  0.6947902491613294  0.5251668143913478  0.5403175849104328  1.0000
  C   C17       1.0  0.43287668553496433  0.3756619684958196  0.41768079235003336  1.0000
  C   C18       1.0  0.5678588219339389  0.6250221457023173  0.5817024241604687  1.0000
  C   C19       1.0  0.5655452156327813  0.41278652563440227  0.3220685319845841  1.0000
  C   C20       1.0  0.4349378501258698  0.5883789392739941  0.6771665846358985  1.0000
  C   C21       1.0  0.699326118935332  0.3051580339940046  0.2851477801782351  1.0000
  C   C22       1.0  0.3013784455375799  0.6963297131622425  0.7135279896284388  1.0000
  C   C23       1.0  0.5745196220126445  0.551190075970716  0.2591578953660941  1.0000
  C   C24       1.0  0.4253172113045451  0.45013210890041927  0.740460592386988  1.0000
  C   C25       1.0  0.4487409347365767  0.6478483662302778  0.29266478621090647  1.0000
  C   C26       1.0  0.5508201550523922  0.35306194313613304  0.7070356509380602  1.0000
  N   N1        1.0  0.17910057914271954  0.4396407405236928  0.5646620238849707  1.0000
  N   N2        1.0  0.8212439033347109  0.5605513444006646  0.43492167307146457  1.0000
  N   N3        1.0  0.9382391081694054  0.41579924167476884  0.7811083839704976  1.0000
  N   N4        1.0  0.061490946050135185  0.5837195571650396  0.21803040433972143  1.0000
  N   N5        1.0  0.8414285428376829  0.7206252110525996  0.7504524548798202  1.0000
  N   N6        1.0  0.1594816905115621  0.27909607572728123  0.2521753493510985  1.0000
  O   O1        1.0  0.2383932053054281  0.1926467116742643  0.597595838428056  1.0000
  O   O2        1.0  0.7622251810980315  0.8076236686577758  0.4012738571928125  1.0000
  O   O3        1.0  0.018776693470492507  0.18005569585873354  0.8252983074298895  1.0000
  O   O4        1.0  0.9812123928052897  0.8194360585300089  0.17326291655283638  1.0000
  O   O5        1.0  0.07414229789752372  0.7317867724360949  0.5162056937606465  1.0000
  O   O6        1.0  0.9249901826226435  0.26778735543699367  0.4835801779356998  1.0000
  O   O7        1.0  0.22197924472513356  0.8521498981791495  0.3429733666765458  1.0000
  O   O8        1.0  0.7756085964210016  0.1468860458840666  0.6554455084219413  1.0000
  O   O9        1.0  0.8247910492879811  0.35004416978244274  0.21535459595563822  1.0000
  O   O10       1.0  0.1754978633702393  0.6516040539128908  0.7825182463542218  1.0000
  O   O11       1.0  0.679326455642027  0.17409705825271968  0.32465967804436957  1.0000
  O   O12       1.0  0.3219251915885692  0.8273515355476065  0.6745124714411688  1.0000
  O   O13       1.0  0.3810242555447233  0.0381088212886951  0.7867852298914073  1.0000
  O   O14       1.0  0.6156595657257711  0.9644092279799211  0.21683085289036091  1.0000
  O   O15       1.0  0.0443115367911346  0.8706671256348243  0.907151770030289  1.0000
  O   O16       1.0  0.9553821531924669  0.12965796198335508  0.09135252878063226  1.0000
  O   O17       1.0  0.0070354170812052825  0.9652572803473803  0.6430325689889215  1.0000
  O   O18       1.0  0.9929598536134276  0.0350764596134354  0.35464702736047127  1.0000
