data_image0
_chemical_formula_structural       La4H28C56N8O32
_chemical_formula_sum              "La4 H28 C56 N8 O32"
_cell_length_a       6.814779430191613
_cell_length_b       14.382205845311681
_cell_length_c       14.703005852325212
_cell_angle_alpha    97.70377491183348
_cell_angle_beta     89.99922026194994
_cell_angle_gamma    89.99974905469372

_space_group_name_H-M_alt    "P 1"
_space_group_IT_number       1

loop_
  _space_group_symop_operation_xyz
  'x, y, z'

loop_
  _atom_site_type_symbol
  _atom_site_label
  _atom_site_symmetry_multiplicity
  _atom_site_fract_x
  _atom_site_fract_y
  _atom_site_fract_z
  _atom_site_occupancy
  La  La1       1.0  0.2362371859149874  0.30586725578695007  0.6611877673452824  1.0000
  La  La2       1.0  0.736216746471115  0.694143417668613  0.8388284547303828  1.0000
  La  La3       1.0  0.7637789374240144  0.6941345876974127  0.3388216388423402  1.0000
  La  La4       1.0  0.2637582896461765  0.3058654597700041  0.16118235473418713  1.0000
  H   H1        1.0  0.1612195131350234  0.3679766593292585  0.4325183328028004  1.0000
  H   H2        1.0  0.661210562060603  0.6320256229231519  0.0674804194616598  1.0000
  H   H3        1.0  0.8387834038879021  0.6320246297969947  0.5674726450078893  1.0000
  H   H4        1.0  0.3387850178971448  0.36797234432794573  0.9325163408777899  1.0000
  H   H5        1.0  0.37905367578858323  0.5356593010447313  0.6630297483989764  1.0000
  H   H6        1.0  0.8790411964540894  0.4643367214244592  0.8369779352621407  1.0000
  H   H7        1.0  0.6209580454240042  0.46433408535112625  0.33697742800846703  1.0000
  H   H8        1.0  0.1209587855767253  0.5356601100711131  0.1630275538849659  1.0000
  H   H9        1.0  0.3705462089709571  0.6774638935096038  0.585705809924548  1.0000
  H   H10       1.0  0.8705429772709437  0.3225346730118234  0.9142926633213692  1.0000
  H   H11       1.0  0.629461110174546  0.3225313094450969  0.4142920272016824  1.0000
  H   H12       1.0  0.12947021150905869  0.6774590656645433  0.08570298206180382  1.0000
  H   H13       1.0  0.3198767715867277  0.019082262432775103  0.19681959046867095  1.0000
  H   H14       1.0  0.819873918558514  0.9809169521163883  0.3031853211828307  1.0000
  H   H15       1.0  0.6801349496289645  0.9809173538556026  0.8031855043473186  1.0000
  H   H16       1.0  0.18012312885310425  0.0190802111339252  0.6968079544205993  1.0000
  H   H17       1.0  0.2724094017387699  0.8549736279172466  0.2407995683476756  1.0000
  H   H18       1.0  0.7724020455235063  0.14502765191666364  0.25919973389375883  1.0000
  H   H19       1.0  0.7275920476917223  0.14503151694360383  0.759203372850621  1.0000
  H   H20       1.0  0.22760087138875917  0.8549669318391013  0.7408007613230795  1.0000
  H   H21       1.0  0.2079743250015156  0.96261688225016  0.5152793760375118  1.0000
  H   H22       1.0  0.7079788795629512  0.0373814215799655  0.9847180639045661  1.0000
  H   H23       1.0  0.792010983167394  0.037383849295075315  0.48471630751025435  1.0000
  H   H24       1.0  0.292025504673731  0.9626223206046662  0.015284733162815181  1.0000
  H   H25       1.0  0.18970757037912023  0.8386135868234349  0.3923695140242601  1.0000
  H   H26       1.0  0.689703072492236  0.16138846403305251  0.10762427011536603  1.0000
  H   H27       1.0  0.8102850748166973  0.16138846525207381  0.6076235834836511  1.0000
  H   H28       1.0  0.310298377007534  0.8386151549608911  0.8923744317571406  1.0000
  C   C1        1.0  0.1051116099179978  0.5034438706583375  0.3220225089784919  1.0000
  C   C2        1.0  0.6051299478553461  0.49656574128941605  0.17798211647966872  1.0000
  C   C3        1.0  0.894873698184739  0.49656461664632456  0.6779753323036105  1.0000
  C   C4        1.0  0.39488324073787606  0.5034408472901434  0.8220223338687448  1.0000
  C   C5        1.0  0.1898407158542028  0.5146086436135351  0.41649504860860287  1.0000
  C   C6        1.0  0.6898443304492049  0.4853944366771686  0.08350972722053743  1.0000
  C   C7        1.0  0.8101666032621111  0.4853914686921215  0.5835032929415221  1.0000
  C   C8        1.0  0.3101556516079143  0.5146030345566504  0.916493786384777  1.0000
  C   C9        1.0  0.2039904687525436  0.43772152657702185  0.4650137927533677  1.0000
  C   C10       1.0  0.7039786918330508  0.5622800664600194  0.03498937938227441  1.0000
  C   C11       1.0  0.7960256547895952  0.5622799062566487  0.5349819627519921  1.0000
  C   C12       1.0  0.2960066162814456  0.43771800346955575  0.9650107936620673  1.0000
  C   C13       1.0  0.32363987590790094  0.5308365082107047  0.5930725846435436  1.0000
  C   C14       1.0  0.8236296927508847  0.46916220265811165  0.9069262020767328  1.0000
  C   C15       1.0  0.6763689106036993  0.46916083981436435  0.406926833727681  1.0000
  C   C16       1.0  0.1763629523355661  0.5308379918002616  0.09307486965887081  1.0000
  C   C17       1.0  0.31787181507927204  0.6109084015520097  0.5497392723859208  1.0000
  C   C18       1.0  0.8178507914276383  0.3890855203942466  0.9502624611622609  1.0000
  C   C19       1.0  0.6821281670333335  0.3890848000690995  0.450261761253728  1.0000
  C   C20       1.0  0.1821506580492525  0.6109084441580636  0.04974069213538001  1.0000
  C   C21       1.0  0.24854297845030968  0.6032056386200891  0.4598138114367529  1.0000
  C   C22       1.0  0.7485369166356719  0.3967936106442594  0.04018543410584391  1.0000
  C   C23       1.0  0.7514658081084422  0.3967888424639697  0.5401832710899087  1.0000
  C   C24       1.0  0.2514601306577049  0.6032065632748028  0.9598149550809368  1.0000
  C   C25       1.0  0.25194180673565114  0.6888199722612568  0.4115582365822377  1.0000
  C   C26       1.0  0.7519306780062253  0.31118126789714756  0.08843778977574601  1.0000
  C   C27       1.0  0.7480596427933082  0.3111787373817308  0.5884399608663814  1.0000
  C   C28       1.0  0.24806343460990382  0.6888138118826749  0.9115559521899359  1.0000
  C   C29       1.0  0.2904868742707691  0.18090479675284143  0.30410358773163193  1.0000
  C   C30       1.0  0.7904871520250224  0.81909997518698  0.19589731905276156  1.0000
  C   C31       1.0  0.7095175099515815  0.8190996673001721  0.6958999639304153  1.0000
  C   C32       1.0  0.20952310184669193  0.1808988371051328  0.8041042910370068  1.0000
  C   C33       1.0  0.29054844466887175  0.0856004179193945  0.3368248938465257  1.0000
  C   C34       1.0  0.7905459083087224  0.9144009498187204  0.1631790649036162  1.0000
  C   C35       1.0  0.7094588743351836  0.9144033858583215  0.6631799508133869  1.0000
  C   C36       1.0  0.2094584760269598  0.08559289153386371  0.836819993179539  1.0000
  C   C37       1.0  0.2993424574126708  0.0079220224768193  0.2680497165038744  1.0000
  C   C38       1.0  0.7993225303234369  0.9920799169009485  0.2319508429284625  1.0000
  C   C39       1.0  0.7006604594375858  0.9920796157025222  0.7319528643867486  1.0000
  C   C40       1.0  0.2006569082867742  0.0079179682448469  0.7680431873284734  1.0000
  C   C41       1.0  0.2717465968635295  0.9183238168874582  0.29011687203828984  1.0000
  C   C42       1.0  0.7717309848112424  0.08168016767941572  0.20987931023157816  1.0000
  C   C43       1.0  0.7282519178360403  0.08168188558602202  0.7098813634915757  1.0000
  C   C44       1.0  0.2282513885949982  0.9183163353226931  0.7901152584285499  1.0000
  C   C45       1.0  0.2355344945480127  0.9784707510634693  0.4460753696684067  1.0000
  C   C46       1.0  0.7355430916448212  0.021531240887796305  0.0539208383259364  1.0000
  C   C47       1.0  0.7644493461771873  0.021530763950011095  0.5539231160812718  1.0000
  C   C48       1.0  0.2644554230714249  0.9784716562422703  0.9460771089617097  1.0000
  C   C49       1.0  0.2663688256902006  0.06997097475849759  0.428782207656667  1.0000
  C   C50       1.0  0.7663732653431837  0.9300339535193348  0.07122159041890805  1.0000
  C   C51       1.0  0.7336267541487657  0.930033468775534  0.5712206615006893  1.0000
  C   C52       1.0  0.23363405375698684  0.06996549851554332  0.9287780441388876  1.0000
  C   C53       1.0  0.2671230174579478  0.1476394009973134  0.5084288325017498  1.0000
  C   C54       1.0  0.767130420832757  0.852363773899157  0.9915734943329115  1.0000
  C   C55       1.0  0.7328710949737528  0.8523664452106702  0.4915741807816119  1.0000
  C   C56       1.0  0.2328695612423175  0.14763573974460809  0.0084281878517345  1.0000
  N   N1        1.0  0.23442059625252654  0.906580050384058  0.3778336572433433  1.0000
  N   N2        1.0  0.7344265435291958  0.09342481193989731  0.12216489404802643  1.0000
  N   N3        1.0  0.7655661791928949  0.09342439316352374  0.6221692119434296  1.0000
  N   N4        1.0  0.2655602319610253  0.9065788481416918  0.8778351729417366  1.0000
  N   N5        1.0  0.26720029116391697  0.4453469420229583  0.5522980833117047  1.0000
  N   N6        1.0  0.767170539049026  0.5546548300212067  0.9477040990096128  1.0000
  N   N7        1.0  0.7328158323297984  0.5546525099983769  0.44770155121666744  1.0000
  N   N8        1.0  0.23280449731598202  0.44534107431901765  0.0522938102850432  1.0000
  O   O1        1.0  0.12188136573689691  0.21229252373049692  0.2882207774492045  1.0000
  O   O2        1.0  0.6218799858137204  0.7877063112818377  0.2117758297616419  1.0000
  O   O3        1.0  0.8781318228670189  0.7877105787023454  0.7117839951305387  1.0000
  O   O4        1.0  0.3781302680251741  0.21229464608289567  0.7882273615780164  1.0000
  O   O5        1.0  0.4507768820059184  0.21746476083401228  0.2826981094580105  1.0000
  O   O6        1.0  0.9507827219217122  0.7825374754547951  0.21730355759202521  1.0000
  O   O7        1.0  0.5492245673839448  0.7825404661569736  0.7173075618767372  1.0000
  O   O8        1.0  0.049233401592317705  0.21746193550146134  0.7826947118681247  1.0000
  O   O9        1.0  0.2969184294055155  0.23066994966373502  0.4918406956226846  1.0000
  O   O10       1.0  0.7969217506958941  0.7693326368755536  0.008157904388724522  1.0000
  O   O11       1.0  0.7030742156618999  0.7693351336130619  0.5081601980026846  1.0000
  O   O12       1.0  0.20307676400656052  0.23066751650871714  0.991841802259039  1.0000
  O   O13       1.0  0.2380160692516498  0.12602333737680743  0.5888699712510004  1.0000
  O   O14       1.0  0.7380095123946475  0.8739756780267174  0.9111307527056525  1.0000
  O   O15       1.0  0.7619883150035206  0.8739789816035922  0.41113199916115667  1.0000
  O   O16       1.0  0.2619904697049122  0.12602309321613356  0.08886949235020583  1.0000
  O   O17       1.0  0.40709775088787836  0.7065643262077547  0.3710381187492899  1.0000
  O   O18       1.0  0.9070841168257999  0.29343231063518266  0.12895916856206924  1.0000
  O   O19       1.0  0.5929007639148623  0.29343077409782137  0.6289563057357981  1.0000
  O   O20       1.0  0.0929158653029489  0.7065615512567123  0.8710405720699088  1.0000
  O   O21       1.0  0.10183828153733292  0.7432377963691581  0.4192498034748838  1.0000
  O   O22       1.0  0.6018249269818412  0.2567667315560271  0.0807481967322516  1.0000
  O   O23       1.0  0.8981646353230845  0.2567638212776445  0.5807520948816247  1.0000
  O   O24       1.0  0.39816918560745057  0.7432311740997264  0.919246516009764  1.0000
  O   O25       1.0  0.022413474950418795  0.5749491372769742  0.2960561838562726  1.0000
  O   O26       1.0  0.5224052674682511  0.42504942568042753  0.20394511121474326  1.0000
  O   O27       1.0  0.9775967789590325  0.42505514197420524  0.7039412249791468  1.0000
  O   O28       1.0  0.477591779785037  0.5749473647545856  0.79605901287394  1.0000
  O   O29       1.0  0.11760611739336471  0.42433221002121263  0.2730269656366886  1.0000
  O   O30       1.0  0.6176120376799403  0.5756706818901948  0.2269646422095022  1.0000
  O   O31       1.0  0.8823850604412726  0.5756753090156154  0.7269619306217692  1.0000
  O   O32       1.0  0.3824011510302513  0.4243280482672703  0.7730342377340095  1.0000
