data_image0
_chemical_formula_structural       Zn2H24C30S2N8O8
_chemical_formula_sum              "Zn2 H24 C30 S2 N8 O8"
_cell_length_a       8.755211006660174
_cell_length_b       10.271241853460177
_cell_length_c       10.271271994619243
_cell_angle_alpha    76.75285094805751
_cell_angle_beta     72.15286524728553
_cell_angle_gamma    72.15336876870215

_space_group_name_H-M_alt    "P 1"
_space_group_IT_number       1

loop_
  _space_group_symop_operation_xyz
  'x, y, z'

loop_
  _atom_site_type_symbol
  _atom_site_label
  _atom_site_symmetry_multiplicity
  _atom_site_fract_x
  _atom_site_fract_y
  _atom_site_fract_z
  _atom_site_occupancy
  Zn  Zn1       1.0  0.5000051024026462  0.32759881259678997  0.672401865913869  1.0000
  Zn  Zn2       1.0  0.49999718781286634  0.6724017835134006  0.3275972782997909  1.0000
  H   H1        1.0  0.45668312436597347  0.22838464509701584  0.0032955696773556246  1.0000
  H   H2        1.0  0.543328494985602  0.9966946444814083  0.771613557817332  1.0000
  H   H3        1.0  0.5433210564642224  0.7716094905335852  0.9966989693486777  1.0000
  H   H4        1.0  0.45666858825288875  0.0032995817387586985  0.22838686143340672  1.0000
  H   H5        1.0  0.12306945807980443  0.44239656420818113  0.6558032103138345  1.0000
  H   H6        1.0  0.8769220248305915  0.34420311074804744  0.5575999228021683  1.0000
  H   H7        1.0  0.8769296636960252  0.5575986796596625  0.3441953779458442  1.0000
  H   H8        1.0  0.12306906552470304  0.6557981343962925  0.44239635955483436  1.0000
  H   H9        1.0  0.8101976134761274  0.49019281289265837  0.7357427254814013  1.0000
  H   H10       1.0  0.18979712117816672  0.26427556136356856  0.5098068836091867  1.0000
  H   H11       1.0  0.18980110960735896  0.5098077851587064  0.26425840117346405  1.0000
  H   H12       1.0  0.8101979878557447  0.735729402773117  0.4901999116930964  1.0000
  H   H13       1.0  0.6708418457122178  0.4306101530004796  0.979358103000109  1.0000
  H   H14       1.0  0.3291622286468439  0.020665395937172096  0.5693831681890699  1.0000
  H   H15       1.0  0.3291593043557343  0.5693905593663686  0.02064425581702524  1.0000
  H   H16       1.0  0.6708313884647272  0.9793406744955672  0.43062569390565375  1.0000
  H   H17       1.0  0.8281501796393302  0.325199871368568  0.15706010804466083  1.0000
  H   H18       1.0  0.17186571827374322  0.8429491883106124  0.6747839527715696  1.0000
  H   H19       1.0  0.17185581630661062  0.6747965754243028  0.8429381558773412  1.0000
  H   H20       1.0  0.8281325796902764  0.1570522263657566  0.3252121953876424  1.0000
  H   H21       1.0  0.2666481421121389  0.2488208219615444  0.2488215740049426  1.0000
  H   H22       1.0  0.73336111610859  0.7511722487854158  0.7511698734586003  1.0000
  H   H23       1.0  0.048734432467057304  0.2738122733798746  0.2738078326203137  1.0000
  H   H24       1.0  0.9512734817539867  0.7261893817904054  0.7261884558322289  1.0000
  C   C1        1.0  0.33889134136438065  0.26203228685561447  0.97561449342664  1.0000
  C   C2        1.0  0.6611173628936271  0.024382355163432085  0.7379652574304881  1.0000
  C   C3        1.0  0.6611118758223001  0.7379650356611833  0.024381390522059114  1.0000
  C   C4        1.0  0.33887715476198127  0.9756159041173899  0.26203282750843465  1.0000
  C   C5        1.0  0.06594561652267575  0.3170933909713014  0.0021706053033696744  1.0000
  C   C6        1.0  0.9340606544013287  0.9978324317799403  0.6828965407594367  1.0000
  C   C7        1.0  0.9340558772291135  0.6829018371512207  0.9978263421051204  1.0000
  C   C8        1.0  0.0659371519562058  0.0021669890134958956  0.31710224461185976  1.0000
  C   C9        1.0  0.14819546336124748  0.3497643979005857  0.8618529177214636  1.0000
  C   C10       1.0  0.8518105767766003  0.13814566264008477  0.6502307573980769  1.0000
  C   C11       1.0  0.8518063271568226  0.6502297101217351  0.13814230448460305  1.0000
  C   C12       1.0  0.14818483926880088  0.8618537305450786  0.3497687111532526  1.0000
  C   C13       1.0  0.05852197982558487  0.41515725427613864  0.7630198476872817  1.0000
  C   C14       1.0  0.9414775437702833  0.23698789615129107  0.584835778502153  1.0000
  C   C15       1.0  0.9414769104376931  0.5848347889013752  0.2369777372397479  1.0000
  C   C16       1.0  0.05851903075884489  0.7630114241308091  0.41516143311685016  1.0000
  C   C17       1.0  0.886625678541357  0.4421994168364237  0.8084821870509412  1.0000
  C   C18       1.0  0.1133709502801281  0.19153334819912968  0.5577947543055471  1.0000
  C   C19       1.0  0.1133758702189454  0.557795941346896  0.19151763337100644  1.0000
  C   C20       1.0  0.8866219735270774  0.8084702514610812  0.44220621061857174  1.0000
  C   C21       1.0  0.8059546226871179  0.4070208258054748  0.9482286240553317  1.0000
  C   C22       1.0  0.19404683607584866  0.051786597192922584  0.5929672669016666  1.0000
  C   C23       1.0  0.19404712091338897  0.5929776463609783  0.05177028435695517  1.0000
  C   C24       1.0  0.8059454208541227  0.9482190692532839  0.40703331774268725  1.0000
  C   C25       1.0  0.8934783847501108  0.3450694375467336  0.04863199452763916  1.0000
  C   C26       1.0  0.10653091602029016  0.9513816141977216  0.6549138759047536  1.0000
  C   C27       1.0  0.10652494245359624  0.6549281450916595  0.9513696354479746  1.0000
  C   C28       1.0  0.8934601090812748  0.048623951737148695  0.3450851349873145  1.0000
  C   C29       1.0  0.17243683877444477  0.2194224639943769  0.2194245510833568  1.0000
  C   C30       1.0  0.8275675919044758  0.7805749156801552  0.7805719489464732  1.0000
  S   S1        1.0  0.5003369785437289  0.6306807423476285  0.6306778835184087  1.0000
  S   S2        1.0  0.49966603355752454  0.3693179170373568  0.3693245139884806  1.0000
  N   N1        1.0  0.31883982697522134  0.3117161231469723  0.8489769611767168  1.0000
  N   N2        1.0  0.6811654995792865  0.1510206934019891  0.6882833083445942  1.0000
  N   N3        1.0  0.6811625284940208  0.6882801521726876  0.15101945450187768  1.0000
  N   N4        1.0  0.31882850813367003  0.8489755286422991  0.31171645613526516  1.0000
  N   N5        1.0  0.1915292831510911  0.2616803978691919  0.07136596249808486  1.0000
  N   N6        1.0  0.808484485491626  0.9286328719587188  0.7383109595893694  1.0000
  N   N7        1.0  0.8084758144050639  0.7383149150193448  0.9286309178115102  1.0000
  N   N8        1.0  0.19151634138292917  0.07136442294979867  0.26168560753935566  1.0000
  O   O1        1.0  0.5217274155386563  0.7165427928105003  0.7165409937808602  1.0000
  O   O2        1.0  0.4782776167637692  0.2834568408685669  0.2834586150638002  1.0000
  O   O3        1.0  0.32678415208877704  0.6392496628884247  0.6392595380063992  1.0000
  O   O4        1.0  0.6732173864263089  0.3607501461462235  0.3607458839640783  1.0000
  O   O5        1.0  0.5896761509179742  0.4806829040903012  0.6718834424559287  1.0000
  O   O6        1.0  0.4103423174412202  0.32809294452813026  0.5193225099803482  1.0000
  O   O7        1.0  0.41032650940849186  0.5193167453340877  0.32811780723991985  1.0000
  O   O8        1.0  0.5896616399673817  0.6719024846170711  0.48067758493272794  1.0000
