data_image0
_chemical_formula_structural       Zn3H36C60N6O12F12
_chemical_formula_sum              "Zn3 H36 C60 N6 O12 F12"
_cell_length_a       10.471677763150296
_cell_length_b       11.71303965945105
_cell_length_c       13.34254231020175
_cell_angle_alpha    103.26223463023258
_cell_angle_beta     110.708563149525
_cell_angle_gamma    107.00932601008486

_space_group_name_H-M_alt    "P 1"
_space_group_IT_number       1

loop_
  _space_group_symop_operation_xyz
  'x, y, z'

loop_
  _atom_site_type_symbol
  _atom_site_label
  _atom_site_symmetry_multiplicity
  _atom_site_fract_x
  _atom_site_fract_y
  _atom_site_fract_z
  _atom_site_occupancy
  Zn  Zn1       1.0  0.4999993226372298  0.5000003284697956  0.4999998502349287  1.0000
  Zn  Zn2       1.0  0.4437821359654919  0.6660709747302676  0.24773128772763905  1.0000
  Zn  Zn3       1.0  0.5562191049351667  0.33392871113731804  0.75226893658607  1.0000
  H   H1        1.0  0.5494311131588461  0.32799403250791676  0.3199994084735779  1.0000
  H   H2        1.0  0.45056854858587775  0.6720066183201467  0.679999822278248  1.0000
  H   H3        1.0  0.1773342166118539  0.3522180351767119  0.34909898877380396  1.0000
  H   H4        1.0  0.8226660078185333  0.647781656802401  0.6509017052579438  1.0000
  H   H5        1.0  0.391348369702925  0.13809491693994144  0.13525132630334014  1.0000
  H   H6        1.0  0.608649809885506  0.8619047750848451  0.8647473034980211  1.0000
  H   H7        1.0  0.004025568214935024  0.16637464944346192  0.16706365563354106  1.0000
  H   H8        1.0  0.9959740994805059  0.8336260074732847  0.8329370769515165  1.0000
  H   H9        1.0  0.10959995837852418  0.936220551816987  0.03848868347496641  1.0000
  H   H10       1.0  0.8903986898712899  0.063780108166938  0.9615117679115104  1.0000
  H   H11       1.0  0.1214175962509927  0.0347654115472551  0.9587648269356424  1.0000
  H   H12       1.0  0.8785811460231017  0.9652333216285812  0.04123526614564104  1.0000
  H   H13       1.0  0.49072744134690544  0.46482268172625407  0.08863723121465485  1.0000
  H   H14       1.0  0.5092733398184422  0.5351760453152253  0.911363424263783  1.0000
  H   H15       1.0  0.11270349453340604  0.4968567852118753  0.0990837857984417  1.0000
  H   H16       1.0  0.8872966299219909  0.5031448274866362  0.9009157647052677  1.0000
  H   H17       1.0  0.3398393201906202  0.2662163235332571  0.9114548001513827  1.0000
  H   H18       1.0  0.6601604415291007  0.7337824065754077  0.08854557412848146  1.0000
  H   H19       1.0  0.9428756540821438  0.29498414430466374  0.925593600054967  1.0000
  H   H20       1.0  0.05712502710821356  0.7050165034562144  0.07440591189543261  1.0000
  H   H21       1.0  0.0918339481918835  0.09467915927395862  0.7708619747029533  1.0000
  H   H22       1.0  0.9081652567928771  0.9053205357723328  0.22913843813021365  1.0000
  H   H23       1.0  0.9486474293701261  0.07366193697718161  0.8154035455214911  1.0000
  H   H24       1.0  0.05135223832530756  0.926338719939565  0.18459718706356648  1.0000
  H   H25       1.0  0.7306090200210207  0.8748087502204529  0.3215052127792789  1.0000
  H   H26       1.0  0.2693937030359379  0.12519189445041687  0.6784956124848948  1.0000
  H   H27       1.0  0.47056947229155804  0.8173927898741693  0.49260632799326504  1.0000
  H   H28       1.0  0.5294307432127637  0.1826068929719113  0.5073921132886385  1.0000
  H   H29       1.0  0.9325388801322769  0.07061252036408658  0.48947203464861394  1.0000
  H   H30       1.0  0.0674628234790547  0.9293881273739545  0.5105285094169788  1.0000
  H   H31       1.0  0.6605089314804926  0.011167362913383298  0.6677214275509442  1.0000
  H   H32       1.0  0.33949128997453937  0.9888323260213882  0.332278515564191  1.0000
  H   H33       1.0  0.008126187524418077  0.23453582568555476  0.6737385140767245  1.0000
  H   H34       1.0  0.9918740369059762  0.7654638662935582  0.3262621799550234  1.0000
  H   H35       1.0  0.8766902370492176  0.2290100715916877  0.7298180245281004  1.0000
  H   H36       1.0  0.12330896793555016  0.7709896234546039  0.2701823883050737  1.0000
  C   C1        1.0  0.25843867498974754  0.6044838997275832  0.3762528015363317  1.0000
  C   C2        1.0  0.7415615464652845  0.39551578920718106  0.623747141578804  1.0000
  C   C3        1.0  0.11085457281043892  0.5859771600782225  0.37963926631746864  1.0000
  C   C4        1.0  0.889148153221882  0.4140234876369888  0.6203623098633246  1.0000
  C   C5        1.0  0.9733734907171439  0.5083100570868382  0.2826141043938507  1.0000
  C   C6        1.0  0.026626736688605504  0.4916896379366164  0.7173873405545168  1.0000
  C   C7        1.0  0.10664493122452262  0.6555834711680504  0.47767996260906653  1.0000
  C   C8        1.0  0.8933557559165449  0.3444171826815179  0.522321051174572  1.0000
  C   C9        1.0  0.8391689394679387  0.5055509876218521  0.2812663975226783  1.0000
  C   C10       1.0  0.16083285816768006  0.49444773330810676  0.7187337882377208  1.0000
  C   C11       1.0  0.9723057342425109  0.6549292558971943  0.4755877172723475  1.0000
  C   C12       1.0  0.027695972344183393  0.34507139488518845  0.524413577709872  1.0000
  C   C13       1.0  0.8356268788487712  0.5830932461578086  0.3762739763936694  1.0000
  C   C14       1.0  0.16437288584630488  0.4169054869951978  0.6237271488028071  1.0000
  C   C15       1.0  0.6933956903368569  0.5987727022474233  0.36661313162818504  1.0000
  C   C16       1.0  0.30660703867081196  0.40122794851212956  0.6333891954692278  1.0000
  C   C17       1.0  0.4064994839820529  0.8402168896001997  0.1251169126021026  1.0000
  C   C18       1.0  0.5934998120516396  0.1597808755936683  0.8748823910092514  1.0000
  C   C19       1.0  0.45613700601373347  0.9208756555685795  0.05987494939682139  1.0000
  C   C20       1.0  0.5438596943937525  0.07912308069727199  0.9401238303706949  1.0000
  C   C21       1.0  0.35697157602023555  0.9073879395500267  0.9510174384704658  1.0000
  C   C22       1.0  0.643026146808232  0.0926107966929877  0.04898237341224391  1.0000
  C   C23       1.0  0.601028041062456  0.0154885130612712  0.1071624923901311  1.0000
  C   C24       1.0  0.39896921310462824  0.9845092552226048  0.8928354979074556  1.0000
  C   C25       1.0  0.4277190840384222  0.28937974149429374  0.28169310971529177  1.0000
  C   C26       1.0  0.5722811374166099  0.7106199474404776  0.7183068333998437  1.0000
  C   C27       1.0  0.22006912903237463  0.30333006003267826  0.297958001866391  1.0000
  C   C28       1.0  0.7799315521579755  0.6966705877282068  0.7020415100840154  1.0000
  C   C29       1.0  0.3385428151888661  0.1831005598787101  0.17932201987751034  1.0000
  C   C30       1.0  0.661455364399565  0.8168991321460769  0.8206766099238509  1.0000
  C   C31       1.0  0.12376784846561151  0.19740530698999242  0.19621601963044813  1.0000
  C   C32       1.0  0.8762322759897854  0.8025963057085191  0.8037835308732683  1.0000
  C   C33       1.0  0.1818864418474107  0.13412080717761657  0.13379743534279243  1.0000
  C   C34       1.0  0.8181142363675846  0.8658798375389197  0.8662013256909875  1.0000
  C   C35       1.0  0.0840444651640766  0.0176604292349865  0.023557835459485015  1.0000
  C   C36       1.0  0.915956772761227  0.9823392535882576  0.9764416379376045  1.0000
  C   C37       1.0  0.36893116090706696  0.4245658247367458  0.04868567306469628  1.0000
  C   C38       1.0  0.6310680411023383  0.5754338672652041  0.9513139888518582  1.0000
  C   C39       1.0  0.157533093759902  0.44217996620785993  0.05467851882730199  1.0000
  C   C40       1.0  0.8424675874304483  0.5578206815530179  0.9453209931231046  1.0000
  C   C41       1.0  0.28299424003964185  0.3125190243867877  0.9501533629291858  1.0000
  C   C42       1.0  0.717002000632526  0.6874787530529574  0.04984584800305913  1.0000
  C   C43       1.0  0.064144077046862  0.330077923635784  0.9579470211575514  1.0000
  C   C44       1.0  0.9358540995662067  0.669921765344654  0.04205085772719024  1.0000
  C   C45       1.0  0.12677101087088968  0.2622774254147373  0.9034048401713408  1.0000
  C   C46       1.0  0.8732281881631679  0.7377222635428708  0.09659407082859424  1.0000
  C   C47       1.0  0.026084263306508107  0.1420536438286533  0.7971092434822824  1.0000
  C   C48       1.0  0.9739159581485308  0.8579460451061179  0.20289069963285297  1.0000
  C   C49       1.0  0.7203461449366486  0.9077166197685004  0.4003923825746158  1.0000
  C   C50       1.0  0.27965601841000154  0.09228498679566141  0.5996077303262484  1.0000
  C   C51       1.0  0.5744375228807145  0.8757681540509734  0.4951622669929281  1.0000
  C   C52       1.0  0.425563709093879  0.12423152268358706  0.5048357045709297  1.0000
  C   C53       1.0  0.8324654936372438  0.016467636109140895  0.4946435869876994  1.0000
  C   C54       1.0  0.1675351905284615  0.9835330146960859  0.5053566758793198  1.0000
  C   C55       1.0  0.6814311891424933  0.9831299889438155  0.593120929092926  1.0000
  C   C56       1.0  0.3185690293371834  0.0168696969466069  0.40687826310558967  1.0000
  C   C57       1.0  0.8146641073814179  0.056365796353276196  0.5942029211705063  1.0000
  C   C58       1.0  0.1853375873038485  0.9436348422517324  0.4057953701452348  1.0000
  C   C59       1.0  0.9320267041798685  0.17350014590861923  0.6978306850975643  1.0000
  C   C60       1.0  0.06797499943146319  0.8265005018294287  0.30216985896803544  1.0000
  N   N1        1.0  0.36966838447451517  0.34943632053069246  0.3406925746400731  1.0000
  N   N2        1.0  0.6303312802455707  0.6505643333417125  0.659307407028365  1.0000
  N   N3        1.0  0.3080844767897588  0.4888916989755998  0.10099811142583091  1.0000
  N   N4        1.0  0.6919156506409933  0.5111099167672534  0.8990021899944979  1.0000
  N   N5        1.0  0.5925748481157385  0.8375327490965179  0.3998625548737424  1.0000
  N   N6        1.0  0.40742787196586505  0.1624678925300032  0.6001375194738119  1.0000
  O   O1        1.0  0.35724577807873453  0.597547299820043  0.458804533388566  1.0000
  O   O2        1.0  0.6427564882182607  0.4024523890690545  0.5411974739569559  1.0000
  O   O3        1.0  0.2685705603261184  0.6316205213421213  0.29159251200070463  1.0000
  O   O4        1.0  0.7314297581285558  0.3683772438289097  0.7084078237258498  1.0000
  O   O5        1.0  0.6599111594597673  0.5985112810200305  0.44787045310802415  1.0000
  O   O6        1.0  0.34008962170558016  0.4014874460214485  0.5521302023704138  1.0000
  O   O7        1.0  0.6241260362486328  0.6155282645806892  0.27519819415356045  1.0000
  O   O8        1.0  0.37587418520639915  0.3844714243540822  0.7248017489615679  1.0000
  O   O9        1.0  0.47418284366303703  0.76652276924343  0.14466347136819718  1.0000
  O   O10       1.0  0.525817377792002  0.23347691969134135  0.8553364717469308  1.0000
  O   O11       1.0  0.30877597598883  0.8535704627345027  0.1534062774404674  1.0000
  O   O12       1.0  0.691222209550311  0.14642923537897454  0.8465938541941258  1.0000
  F   F1        1.0  0.9687289337528427  0.43531998947186423  0.18583391719332815  1.0000
  F   F2        1.0  0.03127277283384452  0.5646806613105257  0.8141673777888914  1.0000
  F   F3        1.0  0.235240036202562  0.7338681728475294  0.5751908324655802  1.0000
  F   F4        1.0  0.7647621360701605  0.26613344284965734  0.42481153318513526  1.0000
  F   F5        1.0  0.7107444210811167  0.42715757438109847  0.18394064223230094  1.0000
  F   F6        1.0  0.2892573825052054  0.5728411526375509  0.8160610453613373  1.0000
  F   F7        1.0  0.9795773560650006  0.7344490576394946  0.5710799753309957  1.0000
  F   F8        1.0  0.020422314605795636  0.26555160232159386  0.42892150817068153  1.0000
  F   F9        1.0  0.21477938204076016  0.8157350758899614  0.8985159051185652  1.0000
  F   F10       1.0  0.7852173213420883  0.1842636634202393  0.10148362556556385  1.0000
  F   F11       1.0  0.7049106279376075  0.03580916908001801  0.2132612154908885  1.0000
  F   F12       1.0  0.29508709191550514  0.9641895641186622  0.7867378454752016  1.0000
