data_image0
_chemical_formula_structural       Cd4H44C36N16
_chemical_formula_sum              "Cd4 H44 C36 N16"
_cell_length_a       8.082837891487356
_cell_length_b       8.08284285580203
_cell_length_c       16.054379478519664
_cell_angle_alpha    91.12861256074838
_cell_angle_beta     91.12852225382
_cell_angle_gamma    95.74031316167832

_space_group_name_H-M_alt    "P 1"
_space_group_IT_number       1

loop_
  _space_group_symop_operation_xyz
  'x, y, z'

loop_
  _atom_site_type_symbol
  _atom_site_label
  _atom_site_symmetry_multiplicity
  _atom_site_fract_x
  _atom_site_fract_y
  _atom_site_fract_z
  _atom_site_occupancy
  Cd  Cd1       1.0  0.511918781463713  0.49678001364755914  0.7494903605292863  1.0000
  Cd  Cd2       1.0  0.49678891070520587  0.5119254426265699  0.24949073091120516  1.0000
  Cd  Cd3       1.0  0.4987696476456166  0.004838325044296702  0.9997908989948742  1.0000
  Cd  Cd4       1.0  0.00483602946808761  0.4987686024344671  0.4997912500561342  1.0000
  H   H1        1.0  0.18709412992743069  0.81342441484383  0.9602986995497176  1.0000
  H   H2        1.0  0.8134241773859684  0.1870937326160416  0.4602992543835286  1.0000
  H   H3        1.0  0.20585862315886772  0.9724421719479113  0.8979927716084433  1.0000
  H   H4        1.0  0.9724406279964484  0.205859214936723  0.3979938895188441  1.0000
  H   H5        1.0  0.12821067292593114  0.15567690273316975  0.011253492949201402  1.0000
  H   H6        1.0  0.15567579698943493  0.12821140647862717  0.5112539103641539  1.0000
  H   H7        1.0  0.10089439088398681  0.977802112638294  0.0732839327138706  1.0000
  H   H8        1.0  0.9778014909716078  0.10089335583575831  0.5732846179039442  1.0000
  H   H9        1.0  0.8994059304183821  0.03487009440268451  0.9139783207497416  1.0000
  H   H10       1.0  0.034872397679905014  0.8994067409351703  0.41397951555594403  1.0000
  H   H11       1.0  0.8744097007415305  0.8524693258629201  0.9731374906305775  1.0000
  H   H12       1.0  0.8524707080668394  0.8744083358038213  0.4731364441416091  1.0000
  H   H13       1.0  0.8073424178513806  0.03631053912576481  0.09107975868183622  1.0000
  H   H14       1.0  0.036311564846890625  0.8073433901502444  0.5910805229161513  1.0000
  H   H15       1.0  0.8136041820629388  0.19204956424800204  0.027286140189872306  1.0000
  H   H16       1.0  0.19204926455665122  0.8136036478334534  0.5272861899004795  1.0000
  H   H17       1.0  0.6437649356642723  0.7249294094174844  0.5879241571585396  1.0000
  H   H18       1.0  0.724930317473792  0.6437621562926383  0.0879236710737104  1.0000
  H   H19       1.0  0.6720257099444353  0.9060571291428375  0.6486656127320815  1.0000
  H   H20       1.0  0.9060583053844553  0.6720242021961556  0.1486650825491296  1.0000
  H   H21       1.0  0.4815060476191846  0.7135983886044458  0.4556402956880419  1.0000
  H   H22       1.0  0.7135996271319626  0.4815068226713778  0.9556406577035759  1.0000
  H   H23       1.0  0.3704016055464976  0.8746412370601818  0.341931460641888  1.0000
  H   H24       1.0  0.8746374880180953  0.370405396475313  0.84193044566198  1.0000
  H   H25       1.0  0.36910158673112653  0.18268117650414695  0.3558437763320654  1.0000
  H   H26       1.0  0.1826780319150743  0.36910291512162274  0.8558399031830393  1.0000
  H   H27       1.0  0.48806053854394793  0.32811531840361147  0.4858382595395342  1.0000
  H   H28       1.0  0.3281176154021211  0.4880616637759872  0.9858344343605626  1.0000
  H   H29       1.0  0.6031612499623265  0.16833275494627742  0.5991592779326497  1.0000
  H   H30       1.0  0.1683344659551551  0.6031608248639628  0.0991577883718264  1.0000
  H   H31       1.0  0.687602659418829  0.985108693105552  0.7958228995898011  1.0000
  H   H32       1.0  0.98510705675524  0.6876040628948419  0.2958223450490181  1.0000
  H   H33       1.0  0.7526926020567685  0.167985086867489  0.753904302008209  1.0000
  H   H34       1.0  0.16798384445170458  0.7526903508878321  0.2539034419991069  1.0000
  H   H35       1.0  0.8544139181219778  0.7447135606263305  0.7862257960692531  1.0000
  H   H36       1.0  0.7447160562416074  0.8544143468644736  0.28622606307479975  1.0000
  H   H37       1.0  0.1342833032993482  0.6547697337775136  0.76818077403167  1.0000
  H   H38       1.0  0.6547708718292924  0.1342850441106833  0.268182656398281  1.0000
  H   H39       1.0  0.36681437904178443  0.85522875900827  0.7185111154636348  1.0000
  H   H40       1.0  0.8552314304828883  0.36681652901966544  0.2185111637609154  1.0000
  H   H41       1.0  0.3133963319620463  0.1477154869086021  0.6922159676698956  1.0000
  H   H42       1.0  0.14771641954907014  0.31339765676622733  0.19221313523557634  1.0000
  H   H43       1.0  0.03407542552209719  0.23954608877789246  0.711656554867176  1.0000
  H   H44       1.0  0.2395469785484536  0.03407620073150502  0.21165232114776703  1.0000
  C   C1        1.0  0.5027802280402157  0.2873236660999937  0.8368713214931136  1.0000
  C   C2        1.0  0.2873304207226539  0.5027950360964439  0.3368718393918755  1.0000
  C   C3        1.0  0.4803979595847424  0.7300148117962736  0.167541103898138  1.0000
  C   C4        1.0  0.7300194703480543  0.48039339108179757  0.6675439289171836  1.0000
  C   C5        1.0  0.3117044622597547  0.478551756359174  0.6541129570421518  1.0000
  C   C6        1.0  0.47856202574451606  0.3117116650872447  0.1541101613929854  1.0000
  C   C7        1.0  0.5376694739907535  0.7042466704899581  0.8418009289741593  1.0000
  C   C8        1.0  0.7042587200945789  0.5376800501618747  0.34180379706242553  1.0000
  C   C9        1.0  0.09117407491821442  0.0210457813436946  0.0091315675528421  1.0000
  C   C10       1.0  0.021045167411770597  0.0911761432694647  0.5091320445474778  1.0000
  C   C11       1.0  0.9109483993131774  0.9870540150107632  0.9771624776757832  1.0000
  C   C12       1.0  0.9870554567581564  0.9109492186932898  0.47716266272932734  1.0000
  C   C13       1.0  0.5504590194046841  0.9290767378669573  0.5360123652080733  1.0000
  C   C14       1.0  0.929072161519315  0.5504554553161044  0.0360110667969167  1.0000
  C   C15       1.0  0.4832965551927586  0.8482561616556128  0.462328353759716  1.0000
  C   C16       1.0  0.8482550115603048  0.4832987192844414  0.9623267826352591  1.0000
  C   C17       1.0  0.4207599061402903  0.9400070471755984  0.3983613296537031  1.0000
  C   C18       1.0  0.9400019870556307  0.4207595768285088  0.8983602479042433  1.0000
  C   C19       1.0  0.4213629772036924  0.11276281529609383  0.4055189850358403  1.0000
  C   C20       1.0  0.11275616996047691  0.4213649719219249  0.9055151291960188  1.0000
  C   C21       1.0  0.4870696234353389  0.19355773559744455  0.47856914519024946  1.0000
  C   C22       1.0  0.19355534677351474  0.4870678513661417  0.9785659116612282  1.0000
  C   C23       1.0  0.550875844311463  0.10378615582372672  0.5429163417278178  1.0000
  C   C24       1.0  0.10378136260816008  0.5508774188658022  0.0429141838164568  1.0000
  C   C25       1.0  0.9237760566142015  0.9977679147229426  0.7492359736128975  1.0000
  C   C26       1.0  0.9977705301232405  0.9237767084128878  0.24923492499213046  1.0000
  C   C27       1.0  0.955043670562965  0.8332123612016815  0.7655484864627057  1.0000
  C   C28       1.0  0.8332175006675442  0.9550427180638793  0.26554877245583003  1.0000
  C   C29       1.0  0.113579626957609  0.7831434719369454  0.7553962802121676  1.0000
  C   C30       1.0  0.7831445173255318  0.11357847220654801  0.2553980693543068  1.0000
  C   C31       1.0  0.2439170921661074  0.8951576349956839  0.7285914417307779  1.0000
  C   C32       1.0  0.8951604186670181  0.24391817818598582  0.22859203695384175  1.0000
  C   C33       1.0  0.2136218587437071  0.059233733341102414  0.7136779059301617  1.0000
  C   C34       1.0  0.05923586333607741  0.21362160713738382  0.21367755627519366  1.0000
  C   C35       1.0  0.0559370521585052  0.11128467265089634  0.7244403070782539  1.0000
  C   C36       1.0  0.11128777640205101  0.055937009970882905  0.22443926363617092  1.0000
  N   N1        1.0  0.510047622938295  0.19266191819750844  0.8905260095611853  1.0000
  N   N2        1.0  0.19266322508340042  0.5100564769546881  0.3905264408196558  1.0000
  N   N3        1.0  0.47552406846522643  0.8205444249995042  0.111797113252976  1.0000
  N   N4        1.0  0.8205444967207143  0.4755223767979901  0.6118036182016127  1.0000
  N   N5        1.0  0.2170083308496444  0.4628003017522105  0.5979140413203298  1.0000
  N   N6        1.0  0.46280412333526755  0.21701153886942146  0.09791670319059162  1.0000
  N   N7        1.0  0.5538583157465881  0.7989057395008958  0.898138274660326  1.0000
  N   N8        1.0  0.798903534306014  0.553858188345892  0.3981377176773436  1.0000
  N   N9        1.0  0.21313776739031454  0.9401881425223169  0.9592690225607685  1.0000
  N   N10       1.0  0.940187601802414  0.21313826882339273  0.4592695436524395  1.0000
  N   N11       1.0  0.7909593788483562  0.06509614389579353  0.029736389141675104  1.0000
  N   N12       1.0  0.06509642166701471  0.7909605356376092  0.5297365060676  1.0000
  N   N13       1.0  0.6113874566211733  0.8406895221238743  0.6000638052631475  1.0000
  N   N14       1.0  0.8406899030734182  0.6113861541103773  0.10006389326520801  1.0000
  N   N15       1.0  0.7617826967564412  0.04357021208572581  0.7525726429348725  1.0000
  N   N16       1.0  0.04357138269219261  0.7617823815142017  0.2525718851224568  1.0000
