data_image0
_chemical_formula_structural       Gd4H48C44O32
_chemical_formula_sum              "Gd4 H48 C44 O32"
_cell_length_a       5.822598427
_cell_length_b       13.315184338548947
_cell_length_c       15.499
_cell_angle_alpha    93.95471629419329
_cell_angle_beta     90.0
_cell_angle_gamma    90.0

_space_group_name_H-M_alt    "P 1"
_space_group_IT_number       1

loop_
  _space_group_symop_operation_xyz
  'x, y, z'

loop_
  _atom_site_type_symbol
  _atom_site_label
  _atom_site_symmetry_multiplicity
  _atom_site_fract_x
  _atom_site_fract_y
  _atom_site_fract_z
  _atom_site_occupancy
  Gd  Gd1       1.0  0.5607633844126028  0.3670070122576945  0.4177444101884333  1.0000
  Gd  Gd2       1.0  0.06076496678172559  0.1329952776920678  0.0822557900123044  1.0000
  Gd  Gd3       1.0  0.4392386031879808  0.6329960620121895  0.5822571914097168  1.0000
  Gd  Gd4       1.0  0.9392387382651248  0.8670047853185281  0.9177424071529288  1.0000
  H   H1        1.0  0.1243448280140171  0.282352985537635  0.33307316332569303  1.0000
  H   H2        1.0  0.6243432456448872  0.2176493044121344  0.16692832728087842  1.0000
  H   H3        1.0  0.8756571595865592  0.7176485831026085  0.6669283490632907  1.0000
  H   H4        1.0  0.3756553070631341  0.7823537698577567  0.8330726291143478  1.0000
  H   H5        1.0  0.3090664799508076  0.285751191643584  0.2569482938133092  1.0000
  H   H6        1.0  0.8090631801354036  0.21425109830617828  0.24305319679326223  1.0000
  H   H7        1.0  0.6909355076497687  0.7142503769966595  0.7430525733727578  1.0000
  H   H8        1.0  0.19093537257261767  0.7857519759637057  0.7569477596019709  1.0000
  H   H9        1.0  0.0981967084229396  0.3104977204683266  0.5051923922611721  1.0000
  H   H10       1.0  0.5981951260538166  0.1895015582221546  0.9948069843183234  1.0000
  H   H11       1.0  0.9018035617313556  0.6895053538015645  0.4948092093369709  1.0000
  H   H12       1.0  0.4018034266542044  0.8104962463439804  0.00519107903316751  1.0000
  H   H13       1.0  0.20136542382231679  0.410992476670323  0.5412796588915967  1.0000
  H   H14       1.0  0.7013741461308598  0.0890098132794463  0.9587192509033073  1.0000
  H   H15       1.0  0.7986279765468679  0.5890105975995681  0.4587212975036365  1.0000
  H   H16       1.0  0.2986347112548344  0.9109917553608042  0.04127709986234151  1.0000
  H   H17       1.0  0.7993321295210761  0.5255046448556726  0.1568696352328018  1.0000
  H   H18       1.0  0.2993302769976509  0.9744969552898723  0.3431242011081821  1.0000
  H   H19       1.0  0.20067501041833674  0.4744931597104625  0.8431290733216129  1.0000
  H   H20       1.0  0.7006631233715339  0.0255053661651914  0.6568650970299714  1.0000
  H   H21       1.0  0.48753490998736027  0.6933808445045884  0.2878048186261779  1.0000
  H   H22       1.0  0.9875453497421843  0.8066200028261363  0.2121967155452182  1.0000
  H   H23       1.0  0.5124602078280986  0.30662298258012294  0.7121961823736314  1.0000
  H   H24       1.0  0.012463507643509798  0.1933747904807106  0.7878089118229425  1.0000
  H   H25       1.0  0.3926631775597116  0.7161805941999475  0.1353193364492498  1.0000
  H   H26       1.0  0.8926461381740792  0.7838119721677329  0.3646791262600856  1.0000
  H   H27       1.0  0.6073456798259825  0.2838134462920721  0.8646804394880832  1.0000
  H   H28       1.0  0.10733008773232197  0.2161813155094734  0.6353218954784978  1.0000
  H   H29       1.0  0.11721742595799607  0.1191728447475882  0.4038414765555416  1.0000
  H   H30       1.0  0.6172175610351401  0.3808271867577133  0.09615923503437068  1.0000
  H   H31       1.0  0.8827742569649145  0.8808242070037267  0.5961558969884564  1.0000
  H   H32       1.0  0.3827741218877634  0.6191706178084218  0.9038375379112864  1.0000
  H   H33       1.0  0.9166337103467227  0.0366726212329169  0.35330390830865344  1.0000
  H   H34       1.0  0.416638727608408  0.4633274102723846  0.14669744848416846  1.0000
  H   H35       1.0  0.0833493853447891  0.9633236777035776  0.6466972918482554  1.0000
  H   H36       1.0  0.5833701297772861  0.5366711471085708  0.8533051758923165  1.0000
  H   H37       1.0  0.0380603269791635  0.6367894958996274  0.0689778568587371  1.0000
  H   H38       1.0  0.5380364178084136  0.8632023176532326  0.4310147544197632  1.0000
  H   H39       1.0  0.9619571176379151  0.3632030389627516  0.9310192490577691  1.0000
  H   H40       1.0  0.46193809065170643  0.1367939812832617  0.5689812841138105  1.0000
  H   H41       1.0  0.7366470577999209  0.0054940425700565  0.49489033487070333  1.0000
  H   H42       1.0  0.23663490059882256  0.4945022248611295  0.005112089305043803  1.0000
  H   H43       1.0  0.2633583646932109  0.9945052676257189  0.5051155601249491  1.0000
  H   H44       1.0  0.7633481950926893  0.5054978381494664  0.9948925598893508  1.0000
  H   H45       1.0  0.9129910067898946  0.0971108535776608  0.5485321009922683  1.0000
  H   H46       1.0  0.4129874368201882  0.4028884251128204  0.951471792007645  1.0000
  H   H47       1.0  0.0870178505957924  0.9028899622477624  0.4514706571979659  1.0000
  H   H48       1.0  0.5869973763176048  0.5971123907126028  0.04853096618258948  1.0000
  C   C1        1.0  0.8481436702040311  0.4860834967080834  0.3208356131920738  1.0000
  C   C2        1.0  0.3481555572508341  0.013919546056506197  0.17916205080157968  1.0000
  C   C3        1.0  0.1518514476114348  0.5139210831914482  0.6791654324123185  1.0000
  C   C4        1.0  0.6518670397050883  0.9860790113244491  0.8208308955311594  1.0000
  C   C5        1.0  0.258516883633952  0.5980752408697825  0.4031947642651801  1.0000
  C   C6        1.0  0.758525605942495  0.9019271120905827  0.09680363310079798  1.0000
  C   C7        1.0  0.7414782341815067  0.4019293390297491  0.5968062813392121  1.0000
  C   C8        1.0  0.2414969910134275  0.0980714452903726  0.903194474855276  1.0000
  C   C9        1.0  0.7781027760717976  0.1763408495060972  0.39890752187884  1.0000
  C   C10       1.0  0.2781026409946534  0.3236584291843769  0.1010976615269001  1.0000
  C   C11       1.0  0.22189577663622365  0.8236577078748581  0.6010963929034786  1.0000
  C   C12       1.0  0.7218907593745313  0.6763408810113987  0.8989062978600016  1.0000
  C   C13       1.0  0.0011695809157003998  0.550656940869402  0.2713639836926944  1.0000
  C   C14       1.0  0.5011817381167987  0.9493469177206109  0.2286345028824428  1.0000
  C   C15       1.0  0.9988221020072103  0.4493491446597773  0.7286390867296149  1.0000
  C   C16       1.0  0.49882711926889556  0.050650134030704  0.7713602898498806  1.0000
  C   C17       1.0  0.1936746993869249  0.599823276886184  0.3096026137993846  1.0000
  C   C18       1.0  0.693686856588023  0.9001798288890015  0.19039518296825972  1.0000
  C   C19       1.0  0.8063187009822599  0.4001820558281679  0.6903978312066742  1.0000
  C   C20       1.0  0.3063323054753369  0.0998179756771336  0.8096028803832382  1.0000
  C   C21       1.0  0.9501239127786432  0.5636181536576572  0.18442821795620287  1.0000
  C   C22       1.0  0.4501289300403286  0.9363849521175354  0.3155689336085246  1.0000
  C   C23       1.0  0.04987635737565908  0.4363849206122339  0.8155720932361064  1.0000
  C   C24       1.0  0.5498696226676927  0.0636136052634271  0.6844259483329722  1.0000
  C   C25       1.0  0.3356954844998796  0.6570379561636557  0.2590355771327281  1.0000
  C   C26       1.0  0.835697337023305  0.8429613855374285  0.2409639322207582  1.0000
  C   C27       1.0  0.6643047856544229  0.3429628596617674  0.7409665358545894  1.0000
  C   C28       1.0  0.1643012156847163  0.1570334077694184  0.7590371787269916  1.0000
  C   C29       1.0  0.28216611888972654  0.6693562650940235  0.1726914371297283  1.0000
  C   C30       1.0  0.7821611016280343  0.8306393125329448  0.3273059135920917  1.0000
  C   C31       1.0  0.7178427384959675  0.3306407866572839  0.8273078720230131  1.0000
  C   C32       1.0  0.21782714640231393  0.1693547279590817  0.6726938623452342  1.0000
  C   C33       1.0  0.9409716415601962  0.0907495683328037  0.40975594071169036  1.0000
  C   C34       1.0  0.4409697890367639  0.4092497103576775  0.0902466618823823  1.0000
  C   C35       1.0  0.0590217588089885  0.9092467306036909  0.5902452594452187  1.0000
  C   C36       1.0  0.5590218938861398  0.5907488470232778  0.9097546720882688  1.0000
  C   C37       1.0  0.08591181519240368  0.6241271505956618  0.1353758109032412  1.0000
  C   C38       1.0  0.5859119502695548  0.8758729439202426  0.3646211622431607  1.0000
  C   C39       1.0  0.9140867375156174  0.3758691483408326  0.864624744050758  1.0000
  C   C40       1.0  0.4140762977607935  0.1241278719051806  0.6353757891208288  1.0000
  C   C41       1.0  0.9082457027222333  0.0397433528913496  0.4939103939166358  1.0000
  C   C42       1.0  0.4082335455211349  0.4602566786139519  0.006093543687860901  1.0000
  C   C43       1.0  0.0917614372171798  0.9602567101192534  0.5060936100748492  1.0000
  C   C44       1.0  0.5917461152778216  0.5397441372114713  0.9939098597052904  1.0000
  O   O1        1.0  0.38687710104723994  0.5286619502186198  0.4293329827375131  1.0000
  O   O2        1.0  0.8868858233557829  0.9713411555565656  0.0706622332184637  1.0000
  O   O3        1.0  0.6131180167682188  0.47134262968091173  0.570664836852302  1.0000
  O   O4        1.0  0.11312990381502168  0.0286611658984981  0.9293322265430176  1.0000
  O   O5        1.0  0.2775204267062179  0.3099346149815645  0.3175933786372767  1.0000
  O   O6        1.0  0.777518844337088  0.1900661693385572  0.1824080227601357  1.0000
  O   O7        1.0  0.7224815608943586  0.6900662008438587  0.682408089147131  1.0000
  O   O8        1.0  0.2224831432634886  0.8099369049313266  0.8175922884321807  1.0000
  O   O9        1.0  0.8769194826013019  0.48430384246916697  0.40372003827498293  1.0000
  O   O10       1.0  0.376933087094379  0.0156999531102429  0.0962776703232535  1.0000
  O   O11       1.0  0.123075635214164  0.5156999846155443  0.5962809627248262  1.0000
  O   O12       1.0  0.6230895098615363  0.9843016155300006  0.9037154544278181  1.0000
  O   O13       1.0  0.5805380608639368  0.1810459421428305  0.4318690542409485  1.0000
  O   O14       1.0  0.08053792578678548  0.3189540893624709  0.0681348833635411  1.0000
  O   O15       1.0  0.4194639267366398  0.8189541208677724  0.568133014141786  1.0000
  O   O16       1.0  0.9194554745823992  0.6810444680184842  0.9318670958100341  1.0000
  O   O17       1.0  0.6907294140963457  0.4336123036232564  0.2832967106192612  1.0000
  O   O18       1.0  0.1907395836968675  0.0663892335116856  0.2167034449768934  1.0000
  O   O19       1.0  0.3092674211654014  0.5663907706466276  0.7167061813847155  1.0000
  O   O20       1.0  0.8092778609202185  0.9336085710544495  0.78329203756293  1.0000
  O   O21       1.0  0.848581619005067  0.2512278567271338  0.3546504979576355  1.0000
  O   O22       1.0  0.3485814839279158  0.2487706691485272  0.1453520600318612  1.0000
  O   O23       1.0  0.15141521625668017  0.7487707006538216  0.6453521264188565  1.0000
  O   O24       1.0  0.6514136338875502  0.7512278882324281  0.854649919141714  1.0000
  O   O25       1.0  0.24665619963421648  0.34509332560767797  0.5106275755183347  1.0000
  O   O26       1.0  0.7466580521576487  0.154908211527264  0.989371934874903  1.0000
  O   O27       1.0  0.7533440705200789  0.6549097486622059  0.48937338087689136  1.0000
  O   O28       1.0  0.2533439354429277  0.8450918514833389  0.010626907493247005  1.0000
  O   O29       1.0  0.20513006606491757  0.6729667649797477  0.4548538735111762  1.0000
  O   O30       1.0  0.7051336360346241  0.8270363407954378  0.045149084879796  1.0000
  O   O31       1.0  0.7948650517505484  0.32703781491978384  0.5451503981078004  1.0000
  O   O32       1.0  0.294885526028736  0.17296447502998546  0.9548517377016879  1.0000
