data_image0
_chemical_formula_structural       Co4H104C100S8N16O16
_chemical_formula_sum              "Co4 H104 C100 S8 N16 O16"
_cell_length_a       11.988331497
_cell_length_b       12.041059625201122
_cell_length_c       24.656487988450788
_cell_angle_alpha    89.8836822381418
_cell_angle_beta     90.04021884604097
_cell_angle_gamma    89.90725157545256

_space_group_name_H-M_alt    "P 1"
_space_group_IT_number       1

loop_
  _space_group_symop_operation_xyz
  'x, y, z'

loop_
  _atom_site_type_symbol
  _atom_site_label
  _atom_site_symmetry_multiplicity
  _atom_site_fract_x
  _atom_site_fract_y
  _atom_site_fract_z
  _atom_site_occupancy
  Co  Co1       1.0  0.2500222924967161  0.250131702863321  0.0835238480408762  1.0000
  Co  Co2       1.0  0.749902490064649  0.7499880166034245  0.5834494040349085  1.0000
  Co  Co3       1.0  0.7499863867412557  0.749924806495791  0.9165130167023746  1.0000
  Co  Co4       1.0  0.2500606137006116  0.2499746564205267  0.419580189050059  1.0000
  H   H1        1.0  0.41640117840812974  0.4318664432161227  0.10995995303748168  1.0000
  H   H2        1.0  0.08387717343622111  0.06869937935771019  0.1095714134316594  1.0000
  H   H3        1.0  0.5678016655750542  0.9158082294356973  0.6104350613967426  1.0000
  H   H4        1.0  0.9322176085343514  0.584751445275586  0.6102205129087679  1.0000
  H   H5        1.0  0.5837965764325475  0.5684421479489004  0.890170193657063  1.0000
  H   H6        1.0  0.9158744958103286  0.9310723018533053  0.8906576932459983  1.0000
  H   H7        1.0  0.4322039652705669  0.0795393736392427  0.3868094284132155  1.0000
  H   H8        1.0  0.06781957479276464  0.42015725241650154  0.38671330744601556  1.0000
  H   H9        1.0  0.43874063434094523  0.5867753281880183  0.17595571685659187  1.0000
  H   H10       1.0  0.061517344501858404  0.9137869395609215  0.17573305689459318  1.0000
  H   H11       1.0  0.4129587448068435  0.9378898693953059  0.677003495282058  1.0000
  H   H12       1.0  0.0868903397186145  0.5625673560611232  0.6769004795619293  1.0000
  H   H13       1.0  0.5621308646937352  0.4128678835698452  0.8244112848794956  1.0000
  H   H14       1.0  0.9376798751981426  0.0864955964389225  0.8246712576220145  1.0000
  H   H15       1.0  0.5872110340853424  0.058104486963372885  0.31969022544156894  1.0000
  H   H16       1.0  0.9126575617726049  0.4417145547329326  0.31957747595262015  1.0000
  H   H17       1.0  0.1375408772025679  0.469197235330796  0.2542837602104129  1.0000
  H   H18       1.0  0.36254263893728483  0.031203181111450796  0.2541961562909378  1.0000
  H   H19       1.0  0.5314977779118379  0.6364296682273505  0.7543837128960007  1.0000
  H   H20       1.0  0.9677439419205173  0.8632683255019058  0.754099811305103  1.0000
  H   H21       1.0  0.863354441819965  0.5307305689122472  0.7461473221704722  1.0000
  H   H22       1.0  0.6366658935794903  0.9688201044971549  0.7462410096954669  1.0000
  H   H23       1.0  0.47396612087972306  0.3660033558815599  0.24653730251603173  1.0000
  H   H24       1.0  0.0261355046917586  0.1343053684309083  0.24664964643128678  1.0000
  H   H25       1.0  0.12997069932525562  0.3209280785033144  0.1853078408343265  1.0000
  H   H26       1.0  0.3701342039599638  0.1797349115890299  0.1851703513495906  1.0000
  H   H27       1.0  0.679890116562369  0.6293783756349  0.6849985696553202  1.0000
  H   H28       1.0  0.8192479697544713  0.8703611065518542  0.6847264297017617  1.0000
  H   H29       1.0  0.86996938460414  0.6798009461307968  0.8147732314423661  1.0000
  H   H30       1.0  0.6299375761877357  0.8195422868280958  0.814940733380993  1.0000
  H   H31       1.0  0.32855594906286717  0.3742505682485842  0.3179166516458878  1.0000
  H   H32       1.0  0.17175280338260282  0.1259361031533075  0.3180237231030247  1.0000
  H   H33       1.0  0.20488445883673742  0.5769369991510657  0.319989133259412  1.0000
  H   H34       1.0  0.2954201442946172  0.923058565400936  0.3198901732762991  1.0000
  H   H35       1.0  0.4233929530344724  0.7025571598738479  0.8203924550735451  1.0000
  H   H36       1.0  0.07621691309716282  0.7973868848520099  0.8202152193660908  1.0000
  H   H37       1.0  0.7977585678519717  0.4224746674247298  0.6811375080191693  1.0000
  H   H38       1.0  0.702264459088724  0.07750848532963768  0.6811959106321481  1.0000
  H   H39       1.0  0.5763255513158043  0.29736495335484386  0.1784118711915212  1.0000
  H   H40       1.0  0.9236045902614551  0.20276958254098784  0.17855179411846214  1.0000
  H   H41       1.0  0.13719810374748684  0.6681093243905634  0.27207019487989464  1.0000
  H   H42       1.0  0.36305963126054763  0.8321291859642699  0.2720633001269732  1.0000
  H   H43       1.0  0.3308788895127465  0.6369925593915156  0.7725972166729206  1.0000
  H   H44       1.0  0.1687068867055359  0.863158151443663  0.7724013245752062  1.0000
  H   H45       1.0  0.8641708743199956  0.3303808983799073  0.7289595142840781  1.0000
  H   H46       1.0  0.63588617965371  0.1693718244959683  0.7289059785555096  1.0000
  H   H47       1.0  0.6693762073776953  0.362682539335715  0.22609354895579506  1.0000
  H   H48       1.0  0.8306703345814697  0.1372411724152158  0.22628092400578476  1.0000
  H   H49       1.0  0.18274567840767736  0.84518802808563  0.39461591101538557  1.0000
  H   H50       1.0  0.31762827206705424  0.654601813465433  0.39475502279492497  1.0000
  H   H51       1.0  0.15296922536623472  0.6844957696207032  0.8954264288256084  1.0000
  H   H52       1.0  0.3467968184329991  0.8153217681093281  0.8953947940769067  1.0000
  H   H53       1.0  0.8149096673494114  0.15359892470557668  0.6061554477008713  1.0000
  H   H54       1.0  0.6850131858624666  0.3464806433046448  0.606011063463221  1.0000
  H   H55       1.0  0.8465289773629012  0.3156100164475291  0.1029463670213033  1.0000
  H   H56       1.0  0.6534690036448438  0.18460156933804933  0.1029155434200106  1.0000
  H   H57       1.0  0.0888445765517005  0.830366770859129  0.3387777405447494  1.0000
  H   H58       1.0  0.4115403420602988  0.6697553348328924  0.3389643044473302  1.0000
  H   H59       1.0  0.16816725256768453  0.5901011832471211  0.8399066337104628  1.0000
  H   H60       1.0  0.33151976699306124  0.9099260935373649  0.8397914507793017  1.0000
  H   H61       1.0  0.9101859612334096  0.1672987018815633  0.6616699703578988  1.0000
  H   H62       1.0  0.5898758694617429  0.3325623357924598  0.6615369421838792  1.0000
  H   H63       1.0  0.8321068978442129  0.4095660272302268  0.15868395521403036  1.0000
  H   H64       1.0  0.6678798134006314  0.09045055177535488  0.1587524971695444  1.0000
  H   H65       1.0  0.8985126397616057  0.89916091471418  0.5092257665380018  1.0000
  H   H66       1.0  0.6020817036279951  0.6004612312648092  0.5095449530409083  1.0000
  H   H67       1.0  0.09865480422076443  0.39613040475622086  0.009113241067680598  1.0000
  H   H68       1.0  0.4012567962588777  0.10338576177274209  0.008935194212824599  1.0000
  H   H69       1.0  0.1018779429161683  0.0993200545488264  0.4918323327850587  1.0000
  H   H70       1.0  0.39777333493957917  0.40077614573822734  0.4917122829694804  1.0000
  H   H71       1.0  0.9013350601412641  0.6048282751593134  0.9904628919509193  1.0000
  H   H72       1.0  0.5988762419767184  0.8957208433267494  0.9906591896223345  1.0000
  H   H73       1.0  0.0360761144119266  0.8898851954215345  0.4349372372488957  1.0000
  H   H74       1.0  0.4645477921266875  0.6099921627166366  0.4352223555608886  1.0000
  H   H75       1.0  0.10744882560091183  0.5342587228250295  0.9351771128614174  1.0000
  H   H76       1.0  0.3924445795997258  0.9654303373758281  0.9350509794403192  1.0000
  H   H77       1.0  0.964020604686965  0.1079146892974876  0.5663398718728628  1.0000
  H   H78       1.0  0.5357200961102109  0.39200080634167717  0.5662721410647507  1.0000
  H   H79       1.0  0.8923292907979318  0.466489637784349  0.0642485523140124  1.0000
  H   H80       1.0  0.6077287866948994  0.03387787283720908  0.0643929365516627  1.0000
  H   H81       1.0  0.9903408580323259  0.5332896058810874  0.4355987279556714  1.0000
  H   H82       1.0  0.5097006875743233  0.9666350546105561  0.435767446615408  1.0000
  H   H83       1.0  0.4660769304135286  0.4919748268012113  0.9368192807778826  1.0000
  H   H84       1.0  0.0337461588346315  0.007669064630569298  0.9365580913142606  1.0000
  H   H85       1.0  0.006424157035127101  0.46498247967466  0.5649637603044297  1.0000
  H   H86       1.0  0.49386027721446624  0.0348730485220301  0.5650939494625362  1.0000
  H   H87       1.0  0.5336669197259668  0.508655517287643  0.062427526395282484  1.0000
  H   H88       1.0  0.9665010080816432  0.9918445775775593  0.0628136325588926  1.0000
  H   H89       1.0  0.8544080831579778  0.5589583051252801  0.5103147319259306  1.0000
  H   H90       1.0  0.6456142280149779  0.9408007760535142  0.510475744685337  1.0000
  H   H91       1.0  0.4407667905784366  0.35440786449630923  0.010769198489995798  1.0000
  H   H92       1.0  0.059261255977403914  0.1450453108411409  0.0104435228078685  1.0000
  H   H93       1.0  0.1433145838484151  0.4395565638464589  0.4899808888387298  1.0000
  H   H94       1.0  0.3568664207884851  0.060478636890550795  0.490059570136779  1.0000
  H   H95       1.0  0.5591486262627756  0.6465142158695372  0.9886211817734176  1.0000
  H   H96       1.0  0.9409025261706817  0.8540756892962945  0.989084346940281  1.0000
  H   H97       1.0  0.44219331982609594  0.1127402903816943  0.09981696034225958  1.0000
  H   H98       1.0  0.057799564355413204  0.3871519632734532  0.09975734100817137  1.0000
  H   H99       1.0  0.887622485508807  0.9411956925804859  0.5996220609470128  1.0000
  H   H100      1.0  0.6123938001755178  0.5587117510924102  0.5997400828940798  1.0000
  H   H101      1.0  0.5577472516235389  0.8875318682422132  0.9000872818006725  1.0000
  H   H102      1.0  0.9422276339406537  0.6126874900547107  0.9001513624454771  1.0000
  H   H103      1.0  0.1097078649387342  0.05335605296863119  0.405268709853118  1.0000
  H   H104      1.0  0.3903576512633152  0.4466668909902509  0.4052078737979272  1.0000
  C   C1        1.0  0.3554520838776796  0.4443523007015386  0.1420509721509831  1.0000
  C   C2        1.0  0.144808726347982  0.0563225365784987  0.14171961843703676  1.0000
  C   C3        1.0  0.5555216419760286  0.8548248027844707  0.6424636221602498  1.0000
  C   C4        1.0  0.9442208590171149  0.6455589916720399  0.6422401510508421  1.0000
  C   C5        1.0  0.644859406420075  0.5558405533757664  0.8581509610886896  1.0000
  C   C6        1.0  0.8548795235797685  0.9435062512606861  0.8585569403636624  1.0000
  C   C7        1.0  0.446608658314112  0.1423797442173651  0.3557883127236821  1.0000
  C   C8        1.0  0.05346024193878661  0.3574660261106786  0.3557213930629715  1.0000
  C   C9        1.0  0.368468377929581  0.5298215690711386  0.17900481994279  1.0000
  C   C10       1.0  0.1317666804861446  0.9707601667337187  0.178785404570398  1.0000
  C   C11       1.0  0.4701206831440247  0.8676512262001947  0.6797305728494364  1.0000
  C   C12       1.0  0.02965293002063161  0.6327261845238752  0.6795853774643843  1.0000
  C   C13       1.0  0.6322485097024142  0.4700126104787116  0.8213731322832345  1.0000
  C   C14       1.0  0.8675651512732898  0.029350356043018194  0.8216432443682817  1.0000
  C   C15       1.0  0.5314560188319108  0.1295937794395314  0.3181786522569112  1.0000
  C   C16       1.0  0.9684882243863201  0.3702950041795248  0.31809875423775935  1.0000
  C   C17       1.0  0.28861177888265394  0.5431640727376886  0.2201823122596878  1.0000
  C   C18       1.0  0.2115740325010051  0.9572707789678319  0.22004238933274675  1.0000
  C   C19       1.0  0.457073857999724  0.7875963424372259  0.7207490802754392  1.0000
  C   C20       1.0  0.042549996300117215  0.7125279121419794  0.7205945566952536  1.0000
  C   C21       1.0  0.7124165095596595  0.456662734105258  0.7803708478052869  1.0000
  C   C22       1.0  0.7875119263825214  0.0428433041515319  0.7805286159750864  1.0000
  C   C23       1.0  0.5452026148700427  0.2116061439907284  0.27815623384125127  1.0000
  C   C24       1.0  0.9547594008737833  0.2884308888780253  0.2781538003990462  1.0000
  C   C25       1.0  0.20127595104334972  0.46613271436859793  0.2229369688387592  1.0000
  C   C26       1.0  0.2988310869552677  0.03436345996483679  0.22278771771668454  1.0000
  C   C27       1.0  0.5343492512948276  0.7003073608919335  0.7231541323240049  1.0000
  C   C28       1.0  0.9650164060449384  0.7995747529412609  0.7228941595814857  1.0000
  C   C29       1.0  0.7994998521768155  0.5338974327994847  0.7774478781401868  1.0000
  C   C30       1.0  0.7004809698308421  0.965571118116017  0.7776121354892067  1.0000
  C   C31       1.0  0.47022981682346904  0.3009356802413947  0.2771406772932536  1.0000
  C   C32       1.0  0.0298710780806744  0.19923078630628047  0.27720232449584603  1.0000
  C   C33       1.0  0.19676070354518066  0.38211200688873237  0.1843421698515897  1.0000
  C   C34       1.0  0.30338799741797834  0.1185626471682895  0.1841304603795209  1.0000
  C   C35       1.0  0.6184202441980916  0.6960572585892989  0.6843326176378213  1.0000
  C   C36       1.0  0.8808599380288984  0.8038497551986052  0.6840495271943323  1.0000
  C   C37       1.0  0.8034760962716803  0.6183276486228663  0.8158248840497747  1.0000
  C   C38       1.0  0.6963998640254802  0.8809849173915862  0.8160706617127431  1.0000
  C   C39       1.0  0.38772271200691943  0.3054375436739534  0.316731565290759  1.0000
  C   C40       1.0  0.11248675279113483  0.19467031756644804  0.31679199577224887  1.0000
  C   C41       1.0  0.21559295148480123  0.6501912143861901  0.293688895452739  1.0000
  C   C42       1.0  0.2846939538570227  0.8499390542432791  0.29363900988747815  1.0000
  C   C43       1.0  0.3496600512409954  0.7145283360047187  0.7943270444399104  1.0000
  C   C44       1.0  0.1499403184288894  0.7855434628521392  0.7942021277399218  1.0000
  C   C45       1.0  0.7860615526856166  0.3491123408520734  0.7072734884768224  1.0000
  C   C46       1.0  0.7139962626317599  0.1507174918231371  0.7072949838829955  1.0000
  C   C47       1.0  0.6504376248325061  0.28538572820254154  0.2042160923615342  1.0000
  C   C48       1.0  0.8495096226382657  0.21461571312561029  0.2043130244761429  1.0000
  C   C49       1.0  0.2501594481058191  0.7499935213707545  0.3283516574060314  1.0000
  C   C50       1.0  0.24981051441669422  0.75002578647846  0.8291414909574824  1.0000
  C   C51       1.0  0.7500616385394353  0.24999210630192437  0.6725535406316537  1.0000
  C   C52       1.0  0.7499589896191952  0.2500083241672613  0.16929214094462  1.0000
  C   C53       1.0  0.1517004255523844  0.7869919521809692  0.3636978110459808  1.0000
  C   C54       1.0  0.34865153960048917  0.7129455756022622  0.3638109661086375  1.0000
  C   C55       1.0  0.2114851257347254  0.6527027258016034  0.8647066543961229  1.0000
  C   C56       1.0  0.2881994535238945  0.8472509178310688  0.8646405458828139  1.0000
  C   C57       1.0  0.8472903982858642  0.211222203512456  0.6370151450572975  1.0000
  C   C58       1.0  0.652756015045938  0.2887672623020947  0.6369461975280827  1.0000
  C   C59       1.0  0.7884039828686868  0.3472626788190992  0.13387257846473938  1.0000
  C   C60       1.0  0.7115951181972947  0.1528706902847077  0.1339216528825986  1.0000
  C   C61       1.0  0.9225404671249822  0.8188666755895396  0.4923831018713969  1.0000
  C   C62       1.0  0.5779508705763307  0.6808573474218986  0.4927099942746195  1.0000
  C   C63       1.0  0.17927460236831647  0.42098908516175015  0.99257430863976  1.0000
  C   C64       1.0  0.32067468210515676  0.0785107075321392  0.9923179860605555  1.0000
  C   C65       1.0  0.0768537855135136  0.17932940765808067  0.5086814866308913  1.0000
  C   C66       1.0  0.4229330556449611  0.32071195846791767  0.5086117279542677  1.0000
  C   C67       1.0  0.8206693547490502  0.5798795771271515  0.006880152268450998  1.0000
  C   C68       1.0  0.679478891040546  0.9207108851361383  0.0071851436918137996  1.0000
  C   C69       1.0  0.9986904282943742  0.8134151311935084  0.44990006781008407  1.0000
  C   C70       1.0  0.5017663850335907  0.6864457021459882  0.45018883628539186  1.0000
  C   C71       1.0  0.18453165162255666  0.4977642587695569  0.9503804486274631  1.0000
  C   C72       1.0  0.3154023985812344  0.0019002367135882998  0.9501894234141659  1.0000
  C   C73       1.0  0.0006399778045534002  0.18450459027071986  0.5511182852902506  1.0000
  C   C74       1.0  0.49920700999028617  0.31544693366176085  0.5510683997249969  1.0000
  C   C75       1.0  0.8152939332625807  0.5029735787204003  0.0489795136083515  1.0000
  C   C76       1.0  0.6847649768791089  0.9974646190780303  0.0492131240602873  1.0000
  C   C77       1.0  0.026484058987577403  0.7090736114518916  0.4287518327307253  1.0000
  C   C78       1.0  0.47374058864576096  0.7908257633060103  0.42892663499597455  1.0000
  C   C79       1.0  0.289317321311799  0.5269064154806172  0.9297752767341121  1.0000
  C   C80       1.0  0.2105461031895572  0.9728634988314793  0.9295996633214612  1.0000
  C   C81       1.0  0.9723209397427086  0.28895401232193757  0.5718820365008028  1.0000
  C   C82       1.0  0.5277270545938393  0.21094485145855657  0.5719165102654102  1.0000
  C   C83       1.0  0.7104014864411426  0.47367272989902887  0.0694013661887283  1.0000
  C   C84       1.0  0.7896891535532262  0.0266805674468173  0.06964552155690029  1.0000
  C   C85       1.0  0.972898315340359  0.6160763105284701  0.4510060672934699  1.0000
  C   C86       1.0  0.5271820840174686  0.8837458124168335  0.4512015538174836  1.0000
  C   C87       1.0  0.38294183463587933  0.4737122163288631  0.9520116660539981  1.0000
  C   C88       1.0  0.1168909429696328  0.025914106589780796  0.9517456097059591  1.0000
  C   C89       1.0  0.02485403145507801  0.3824007970922522  0.5495827832572217  1.0000
  C   C90       1.0  0.4753290899789279  0.11752060550760748  0.5496626812763736  1.0000
  C   C91       1.0  0.6168002604886382  0.5269671470775705  0.0472302742347495  1.0000
  C   C92       1.0  0.8833771408990218  0.9735414905322628  0.047604618761027985  1.0000
  C   C93       1.0  0.8980598586097204  0.6304266672297628  0.49326968598238347  1.0000
  C   C94       1.0  0.6020902573425957  0.8692944753292834  0.4935142469242564  1.0000
  C   C95       1.0  0.3687622475230512  0.3979848857291656  0.9938636274361199  1.0000
  C   C96       1.0  0.13115648160452054  0.1014837901140524  0.9935180786426299  1.0000
  C   C97       1.0  0.09980222482477792  0.36835569903922755  0.5074063629140753  1.0000
  C   C98       1.0  0.40031230765249154  0.1316493099005385  0.5074465147105016  1.0000
  C   C99       1.0  0.6311082328831789  0.6028319059315307  0.0054825452938587  1.0000
  C   C100      1.0  0.869054527636628  0.897779477332321  0.0059489550503216  1.0000
  S   S1        1.0  0.4383717202490871  0.22139408680698114  0.0861373649719042  1.0000
  S   S2        1.0  0.061601752908075014  0.2785484161612998  0.08618157250533898  1.0000
  S   S3        1.0  0.7785386691501942  0.9379140480238419  0.5859335429552316  1.0000
  S   S4        1.0  0.7215834985117129  0.5620704321114117  0.586322082561054  1.0000
  S   S5        1.0  0.5614052237258919  0.7787602526701604  0.9135405670457144  1.0000
  S   S6        1.0  0.9386025521912772  0.7214216129617552  0.913482164432736  1.0000
  S   S7        1.0  0.22077251294613384  0.0512581489499198  0.41387336149939796  1.0000
  S   S8        1.0  0.27925518672807215  0.44866407888878257  0.4136292061312261  1.0000
  N   N1        1.0  0.27016243455913275  0.37105549896335077  0.1432490368645531  1.0000
  N   N2        1.0  0.23009907792717854  0.1297399278474956  0.1428771257804797  1.0000
  N   N3        1.0  0.6290844788188468  0.7696118719764653  0.6433149213592273  1.0000
  N   N4        1.0  0.8703295225353644  0.7305700510293673  0.6430010073144388  1.0000
  N   N5        1.0  0.7299066042103561  0.6293637721066716  0.8568271685277224  1.0000
  N   N6        1.0  0.76979873492094  0.8698601601922532  0.857275327467633  1.0000
  N   N7        1.0  0.37599337624560997  0.22961043529549838  0.3564157352395583  1.0000
  N   N8        1.0  0.12420488815887153  0.2703369792490946  0.356413707371054  1.0000
  N   N9        1.0  0.8726122753325641  0.7301481981573019  0.5152063563370248  1.0000
  N   N10       1.0  0.6278366906542061  0.7694987886627869  0.5155620444730431  1.0000
  N   N11       1.0  0.2686026210724322  0.3715186409967543  0.015529011448173  1.0000
  N   N12       1.0  0.2313383587599418  0.1277840080426387  0.015117759715081997  1.0000
  N   N13       1.0  0.12576026432194004  0.2685012852273942  0.485869993802595  1.0000
  N   N14       1.0  0.3741634001031144  0.23157605856132343  0.4858355200379876  1.0000
  N   N15       1.0  0.7313488315763763  0.6293136837313326  0.983876375042186  1.0000
  N   N16       1.0  0.7688276576206761  0.8714774600878454  0.9843825310213816  1.0000
  O   O1        1.0  0.302725253297929  0.629751993060971  0.2545457608214434  1.0000
  O   O2        1.0  0.19750673525197732  0.8705196892756462  0.2544581569019612  1.0000
  O   O3        1.0  0.3704125449076586  0.8016768522343367  0.7554102199339282  1.0000
  O   O4        1.0  0.1292422098467796  0.6984942074779283  0.755345328141722  1.0000
  O   O5        1.0  0.6987275885485077  0.3697294490694459  0.7461781457717719  1.0000
  O   O6        1.0  0.8013020464839613  0.1298777897668302  0.7462649385438453  1.0000
  O   O7        1.0  0.6305391154698655  0.1975897442400125  0.24285712675064988  1.0000
  O   O8        1.0  0.8693127265217769  0.30237228753705375  0.2428331979022786  1.0000
  O   O9        1.0  0.10078002901304471  0.6908920207028828  0.38832627405599135  1.0000
  O   O10       1.0  0.3994736911656816  0.8090317797262329  0.3884057665014424  1.0000
  O   O11       1.0  0.3076140922354115  0.602382417214514  0.8898453291223374  1.0000
  O   O12       1.0  0.19217060278268858  0.8975242582894722  0.889728523896373  1.0000
  O   O13       1.0  0.8977281211661748  0.307004690550336  0.6122341863356056  1.0000
  O   O14       1.0  0.6024071970693825  0.1929278849167488  0.6123104341914426  1.0000
  O   O15       1.0  0.6921006945278947  0.3979177276274797  0.10912082104953667  1.0000
  O   O16       1.0  0.8079336885508044  0.10234128915835328  0.10929765118329728  1.0000
