data_image0
_chemical_formula_structural       Gd4H40C24O32
_chemical_formula_sum              "Gd4 H40 C24 O32"
_cell_length_a       8.58796246825365
_cell_length_b       9.302281287340046
_cell_length_c       12.522696636003019
_cell_angle_alpha    89.99992707888022
_cell_angle_beta     89.99998328332826
_cell_angle_gamma    101.95665456672904

_space_group_name_H-M_alt    "P 1"
_space_group_IT_number       1

loop_
  _space_group_symop_operation_xyz
  'x, y, z'

loop_
  _atom_site_type_symbol
  _atom_site_label
  _atom_site_symmetry_multiplicity
  _atom_site_fract_x
  _atom_site_fract_y
  _atom_site_fract_z
  _atom_site_occupancy
  Gd  Gd1       1.0  0.5972444730931273  0.22081487056252058  0.9071095675810952  1.0000
  Gd  Gd2       1.0  0.9027562318322496  0.779183300077989  0.4071099362834332  1.0000
  Gd  Gd3       1.0  0.40275586434952976  0.7791818452609506  0.0928893272271551  1.0000
  Gd  Gd4       1.0  0.09724293902731058  0.22081340590116838  0.5928897570749924  1.0000
  H   H1        1.0  0.024745570948816506  0.10062254524802232  0.1674143702885686  1.0000
  H   H2        1.0  0.4752529479256468  0.8993769519051825  0.6674132819242187  1.0000
  H   H3        1.0  0.9752515028883407  0.8993752398434227  0.8325869201696604  1.0000
  H   H4        1.0  0.5247471675093819  0.1006241492783175  0.3325856128819779  1.0000
  H   H5        1.0  0.03817788204682421  0.291106696841311  0.18647486978800737  1.0000
  H   H6        1.0  0.46182271786550194  0.7088916855526294  0.6864739646174128  1.0000
  H   H7        1.0  0.9618217610996352  0.7088922067381561  0.8135264206694257  1.0000
  H   H8        1.0  0.5381759948426463  0.2911083069856629  0.31352572873950624  1.0000
  H   H9        1.0  0.14513003918456494  0.3418844913507115  0.0008598617094079998  1.0000
  H   H10       1.0  0.35486745277637505  0.6581153074339525  0.5008598249228271  1.0000
  H   H11       1.0  0.8548684373791389  0.6581144023851877  0.999141428748153  1.0000
  H   H12       1.0  0.6451312599314392  0.3418846851035937  0.49914066698413945  1.0000
  H   H13       1.0  0.1268414645695159  0.1528731277275241  0.9774307633251098  1.0000
  H   H14       1.0  0.3731558638914336  0.8471268786162865  0.47743027512154157  1.0000
  H   H15       1.0  0.8731572481379645  0.8471268648092759  0.0225705271319043  1.0000
  H   H16       1.0  0.6268416822342858  0.15287310407919116  0.522568619685451  1.0000
  H   H17       1.0  0.33174319666795077  0.33961027686784456  0.15715525342974956  1.0000
  H   H18       1.0  0.16825649739158882  0.6603892493128853  0.6571560509492116  1.0000
  H   H19       1.0  0.6682562103353931  0.6603875279122136  0.8428444399281287  1.0000
  H   H20       1.0  0.8317410487337967  0.33961073338184633  0.3428436424078284  1.0000
  H   H21       1.0  0.2677883818514958  0.22171203588138877  0.2671444051882688  1.0000
  H   H22       1.0  0.23220958110281492  0.7782850771617831  0.767145078019787  1.0000
  H   H23       1.0  0.7322093862815253  0.7782835614533141  0.7328552881708247  1.0000
  H   H24       1.0  0.7677877288791282  0.2217138067328008  0.23285381678775244  1.0000
  H   H25       1.0  0.3031628886692345  0.9915635737168739  0.8886962653418135  1.0000
  H   H26       1.0  0.19683591692842134  0.008437707212806301  0.3886982046326252  1.0000
  H   H27       1.0  0.6968346574568187  0.0084364089793496  0.11130183091513147  1.0000
  H   H28       1.0  0.8031635042104031  0.9915655817266894  0.6113030858227546  1.0000
  H   H29       1.0  0.7411206115660037  0.34829476093963774  0.6927570988401043  1.0000
  H   H30       1.0  0.7588784122332229  0.6517059884783265  0.19275841609445615  1.0000
  H   H31       1.0  0.25887810114247867  0.6517052315994009  0.3072417959667674  1.0000
  H   H32       1.0  0.24112030047459143  0.3482940040592196  0.8072420758125103  1.0000
  H   H33       1.0  0.3043444938991016  0.05531393286233309  0.7714408138722816  1.0000
  H   H34       1.0  0.19565370159560308  0.9446842709458565  0.2714426649520121  1.0000
  H   H35       1.0  0.6956525799393917  0.9446838522320958  0.22855728238575065  1.0000
  H   H36       1.0  0.8043457054070728  0.05531353383270949  0.7285586255059684  1.0000
  H   H37       1.0  0.5503228335237011  0.3232789364354219  0.6858880025574335  1.0000
  H   H38       1.0  0.949677598762726  0.6767229344738013  0.18588845880029226  1.0000
  H   H39       1.0  0.44967728191065254  0.676722164746586  0.31411248934886515  1.0000
  H   H40       1.0  0.05032251667196163  0.3232781667089527  0.8141112345559591  1.0000
  C   C1        1.0  0.3455667031901585  0.11433063686924072  0.13195152212500008  1.0000
  C   C2        1.0  0.15443230357420396  0.8856656400443442  0.6319505119243515  1.0000
  C   C3        1.0  0.6544313010859781  0.8856660592648635  0.8680497683336481  1.0000
  C   C4        1.0  0.8455657007029345  0.11433105609200571  0.36804838288415437  1.0000
  C   C5        1.0  0.09090213497318442  0.20993153256733876  0.14344663064779434  1.0000
  C   C6        1.0  0.4090987371656709  0.790068029095302  0.643445659282271  1.0000
  C   C7        1.0  0.9090986747560309  0.7900673808556891  0.8565546598095181  1.0000
  C   C8        1.0  0.5909013782693577  0.20993307208819803  0.35655323552393264  1.0000
  C   C9        1.0  0.9098483445869477  0.22556827727245124  0.9831155271468999  1.0000
  C   C10       1.0  0.5901523107372882  0.7744352353890703  0.4831159638559227  1.0000
  C   C11       1.0  0.09015340971839694  0.7744350313564042  0.016883367658088795  1.0000
  C   C12       1.0  0.4098485131280755  0.22556916219487994  0.516885326598789  1.0000
  C   C13       1.0  0.07620315347696051  0.23330673334877622  0.023745565970131097  1.0000
  C   C14       1.0  0.4237954858759069  0.7666930324821665  0.5237438152142316  1.0000
  C   C15       1.0  0.923794392647764  0.7666932493444633  0.9762557244870036  1.0000
  C   C16       1.0  0.5762020602498198  0.23330695021331146  0.4762550795927608  1.0000
  C   C17       1.0  0.26526929192483817  0.22992460156200425  0.17966563944356295  1.0000
  C   C18       1.0  0.23473200799212185  0.7700716058062582  0.6796663195439975  1.0000
  C   C19       1.0  0.7347308093737085  0.7700710154598198  0.8203340539152819  1.0000
  C   C20       1.0  0.7652683294502084  0.22992511001645974  0.32033337381430727  1.0000
  C   C21       1.0  0.5747979102563505  0.511443910501164  0.03663078714636469  1.0000
  C   C22       1.0  0.9252059249393625  0.48856265443615143  0.5366213141078617  1.0000
  C   C23       1.0  0.42520921880703366  0.48856273389492344  0.963378488807123  1.0000
  C   C24       1.0  0.07479489893069063  0.5114417431582581  0.4633687966461791  1.0000
  O   O1        1.0  0.5854145919307855  0.610688190736134  0.10770888028005028  1.0000
  O   O2        1.0  0.9145968774521337  0.3893161125807936  0.6076987048725967  1.0000
  O   O3        1.0  0.41459835591091837  0.389313018718326  0.892298798575325  1.0000
  O   O4        1.0  0.08541189048926871  0.6106927392778303  0.39229220442857826  1.0000
  O   O5        1.0  0.44337457646780365  0.146167164025897  0.05574826167688229  1.0000
  O   O6        1.0  0.05662450833472831  0.8538347395559001  0.5557488986053513  1.0000
  O   O7        1.0  0.5566257751106747  0.8538350359577507  0.944251431678822  1.0000
  O   O8        1.0  0.9433737462220082  0.1461685395415273  0.4442507947500544  1.0000
  O   O9        1.0  0.3079400338061476  0.9831558388460312  0.16900223951251545  1.0000
  O   O10       1.0  0.19206196934784003  0.016838200705095095  0.6690036418936172  1.0000
  O   O11       1.0  0.6920619283710252  0.016837600262604703  0.83099585674708  1.0000
  O   O12       1.0  0.8079381319506994  0.9831574163167288  0.3309960514652274  1.0000
  O   O13       1.0  0.8903614025667039  0.2881633031149776  0.8940843560714027  1.0000
  O   O14       1.0  0.6096383828423555  0.7118359808413927  0.3940848481262336  1.0000
  O   O15       1.0  0.10963824058042353  0.7118356004659816  0.10591533728593559  1.0000
  O   O16       1.0  0.39036313531854466  0.28816622898506955  0.6059156437793972  1.0000
  O   O17       1.0  0.78771342301755  0.1581257519269172  0.0345666810119951  1.0000
  O   O18       1.0  0.7122843307111211  0.8418741846814441  0.5345672976483582  1.0000
  O   O19       1.0  0.2122850535468146  0.841873141810474  0.9654330123454712  1.0000
  O   O20       1.0  0.2877132154132625  0.1581257980110493  0.46543479135883087  1.0000
  O   O21       1.0  0.6420152172738797  0.3246602169011936  0.7359466994495563  1.0000
  O   O22       1.0  0.857988214631071  0.6753448764823348  0.23594717562662026  1.0000
  O   O23       1.0  0.35798653703113814  0.6753430917269158  0.26405299390548004  1.0000
  O   O24       1.0  0.14201330353016323  0.32465733334488084  0.764052517728963  1.0000
  O   O25       1.0  0.35973829761742593  0.07200307171502368  0.8425221357642626  1.0000
  O   O26       1.0  0.14025821353622095  0.9279982758799933  0.34252241680717077  1.0000
  O   O27       1.0  0.6402580819252038  0.9279969011361471  0.1574775575928982  1.0000
  O   O28       1.0  0.8597398048767317  0.07200390441653332  0.6574772765487751  1.0000
  O   O29       1.0  0.6746145110355641  0.4321061942648329  0.0192982857974613  1.0000
  O   O30       1.0  0.8253897827074824  0.5678916323602577  0.5192951462767538  1.0000
  O   O31       1.0  0.3253932840530567  0.5678872940563833  0.9807054003118549  1.0000
  O   O32       1.0  0.17461079088030124  0.4321061822670984  0.4807005543307666  1.0000
