data_image0
_chemical_formula_structural       La2H34C36N4O18
_chemical_formula_sum              "La2 H34 C36 N4 O18"
_cell_length_a       10.174978220623723
_cell_length_b       10.166967943664705
_cell_length_c       10.716483634940445
_cell_angle_alpha    77.49544509125901
_cell_angle_beta     89.09147919244711
_cell_angle_gamma    65.89663372584694

_space_group_name_H-M_alt    "P 1"
_space_group_IT_number       1

loop_
  _space_group_symop_operation_xyz
  'x, y, z'

loop_
  _atom_site_type_symbol
  _atom_site_label
  _atom_site_symmetry_multiplicity
  _atom_site_fract_x
  _atom_site_fract_y
  _atom_site_fract_z
  _atom_site_occupancy
  La  La1       1.0  0.9704116557676626  0.7942350597919802  0.9958507116458933  1.0000
  La  La2       1.0  0.029594998469640553  0.20576201327942564  0.004146188185408991  1.0000
  H   H1        1.0  0.4740830650473171  0.15524852382002052  0.031351762636681706  1.0000
  H   H2        1.0  0.525917261102144  0.8447495708469932  0.968646874899413  1.0000
  H   H3        1.0  0.3339751668948523  0.5737835094219508  0.13945560567612594  1.0000
  H   H4        1.0  0.6660226312393361  0.42621121845721194  0.8605418751526771  1.0000
  H   H5        1.0  0.7799848920682209  0.2662631561272378  0.21192972988822587  1.0000
  H   H6        1.0  0.22001646370276964  0.73373716494271  0.7880721788556571  1.0000
  H   H7        1.0  0.5558174608070557  0.312848472575972  0.4281849783379243  1.0000
  H   H8        1.0  0.44418240259622593  0.6871507222059637  0.5718153093879081  1.0000
  H   H9        1.0  0.6848586073465981  0.2161044959743279  0.6461299791995644  1.0000
  H   H10       1.0  0.3151440710397537  0.7838902797164452  0.35387209809820774  1.0000
  H   H11       1.0  0.8989897030927382  0.5091192618709499  0.5462634999126834  1.0000
  H   H12       1.0  0.10100343058017092  0.49088428908325465  0.4537378582234978  1.0000
  H   H13       1.0  0.7169730237523665  0.659148930408719  0.2197722564851219  1.0000
  H   H14       1.0  0.2830263708786943  0.340851350391219  0.7802334169489953  1.0000
  H   H15       1.0  0.8597215404533214  0.6442481099872738  0.3080859369539227  1.0000
  H   H16       1.0  0.1402764289397281  0.3557532930833035  0.6919120624594086  1.0000
  H   H17       1.0  0.6786189613326811  0.025488921712501212  0.8731803528604872  1.0000
  H   H18       1.0  0.3213871750808365  0.9745070311089846  0.1268167791261875  1.0000
  H   H19       1.0  0.7844663349928921  0.10118552006273522  0.8233763549999793  1.0000
  H   H20       1.0  0.21553594627045658  0.8988126007773831  0.1766222533644282  1.0000
  H   H21       1.0  0.04569546468448479  0.8366674684341081  0.5898545881547647  1.0000
  H   H22       1.0  0.9542976780274942  0.16333610366547194  0.4101411667035891  1.0000
  H   H23       1.0  0.7695111199353659  0.7342334900493201  0.736648751311634  1.0000
  H   H24       1.0  0.2304863806854485  0.26576899903926693  0.2633546338099819  1.0000
  H   H25       1.0  0.6933959826156054  0.7473782260526536  0.5822247164547036  1.0000
  H   H26       1.0  0.3066015836283924  0.2526265080703638  0.41777354954381  1.0000
  H   H27       1.0  0.6368090378574035  0.9072873452724296  0.6495958332330288  1.0000
  H   H28       1.0  0.3631861150460622  0.09271847336508193  0.35040131048799594  1.0000
  H   H29       1.0  0.7329792018689857  0.026083522720718108  0.43288113917643045  1.0000
  H   H30       1.0  0.2670143960566163  0.9739189316428071  0.5671176348903728  1.0000
  H   H31       1.0  0.7848783843866014  0.8521130279294058  0.38967487837435044  1.0000
  H   H32       1.0  0.2151152716296281  0.14789165384740952  0.6103234459675377  1.0000
  H   H33       1.0  0.9177536391635923  0.9199705646317543  0.41025046403478177  1.0000
  H   H34       1.0  0.08224242718014099  0.08003302558210383  0.5897508503438615  1.0000
  C   C1        1.0  0.7618254651616636  0.056390349885148815  0.10378039933267762  1.0000
  C   C2        1.0  0.2381773278994287  0.943608877107977  0.8962217123948975  1.0000
  C   C3        1.0  0.6402534107289098  0.195714286317319  0.11962583020327598  1.0000
  C   C4        1.0  0.35975041797974666  0.8042871811756528  0.8803758172135403  1.0000
  C   C5        1.0  0.4984591004255847  0.23159016032508356  0.0740180971444886  1.0000
  C   C6        1.0  0.5015451344451378  0.768407983163904  0.9259814159278718  1.0000
  C   C7        1.0  0.3884703699274609  0.36870622317263724  0.07932475266004961  1.0000
  C   C8        1.0  0.6115343261829338  0.6312908166772077  0.9206740441022134  1.0000
  C   C9        1.0  0.23650673674989525  0.4139814900305512  0.026323358947067263  1.0000
  C   C10       1.0  0.7634960638437532  0.586017754583715  0.9736740833823204  1.0000
  C   C11       1.0  0.4183477184886825  0.4663724804084098  0.1360165775149014  1.0000
  C   C12       1.0  0.5816555373185891  0.5336256464698013  0.8639838840229361  1.0000
  C   C13       1.0  0.5573772766828071  0.4250184375168616  0.18760547534550648  1.0000
  C   C14       1.0  0.44262402250407  0.5749796596640239  0.8123959492436583  1.0000
  C   C15       1.0  0.6700009278603501  0.2926476480888952  0.17698208243501057  1.0000
  C   C16       1.0  0.33000238151800687  0.707352695629922  0.8230207310168254  1.0000
  C   C17       1.0  0.65528076423476  0.463319272434525  0.36660029311612863  1.0000
  C   C18       1.0  0.3447167378925754  0.53668322017829  0.633402158125847  1.0000
  C   C19       1.0  0.6324808222035117  0.3537859212502284  0.4549162900233768  1.0000
  C   C20       1.0  0.36751518454309445  0.6462154380261113  0.545086407959829  1.0000
  C   C21       1.0  0.7049348731852377  0.2997834863503641  0.5767130060753872  1.0000
  C   C22       1.0  0.2950645259653584  0.700216805022258  0.4232898657198234  1.0000
  C   C23       1.0  0.8024333960633  0.35527356709491903  0.6085937668214427  1.0000
  C   C24       1.0  0.1975726792465692  0.6447201512648137  0.3914056826494202  1.0000
  C   C25       1.0  0.8797240915023324  0.3016482558221513  0.7380882139707695  1.0000
  C   C26       1.0  0.12027858989704027  0.6983465269170781  0.2619119955677292  1.0000
  C   C27       1.0  0.8242813601975455  0.4660726653920619  0.5190376433562777  1.0000
  C   C28       1.0  0.17571752866182058  0.5339265233517807  0.4809607911961181  1.0000
  C   C29       1.0  0.74941399080825  0.5249024305418858  0.3968889193688767  1.0000
  C   C30       1.0  0.25058495162220135  0.47509897504255605  0.6031118670975246  1.0000
  C   C31       1.0  0.9664028457327515  0.8087541441367849  0.6489108383574306  1.0000
  C   C32       1.0  0.03359557736740725  0.19124613767351667  0.3510911141439834  1.0000
  C   C33       1.0  0.7287716098566291  0.8050133407879443  0.6409095603561852  1.0000
  C   C34       1.0  0.27122491622026956  0.19498914226254277  0.35909197159200085  1.0000
  C   C35       1.0  0.8185397970435133  0.9131944913627238  0.4458541635285371  1.0000
  C   C36       1.0  0.181457246857164  0.08680911193768993  0.5541471362642696  1.0000
  N   N1        1.0  0.7606794370161508  0.6402216401193785  0.3100241332135525  1.0000
  N   N2        1.0  0.23931616658141044  0.3597830502094014  0.6899788313548284  1.0000
  N   N3        1.0  0.8444555939573775  0.8381551307277564  0.5810911314001004  1.0000
  N   N4        1.0  0.15554340505718756  0.16184849874575494  0.41891013922101905  1.0000
  O   O1        1.0  0.8902269147427759  0.0520377281593838  0.09672813742819389  1.0000
  O   O2        1.0  0.1097787528985136  0.9479593106800979  0.9032743802667724  1.0000
  O   O3        1.0  0.7359847654178535  0.9471515516312153  0.09359126417830774  1.0000
  O   O4        1.0  0.26401371577293276  0.052850957592376305  0.9064102385981913  1.0000
  O   O5        1.0  0.15061961882489064  0.5495350654933803  0.0086015933799573  1.0000
  O   O6        1.0  0.8493822027052998  0.4504641625101159  0.9913967974149145  1.0000
  O   O7        1.0  0.20334550293983258  0.3134493171849401  0.0027809007863623903  1.0000
  O   O8        1.0  0.7966573021733437  0.6865499380020098  0.9972137399041188  1.0000
  O   O9        1.0  0.5840781332700116  0.5226578597196367  0.24520376443479813  1.0000
  O   O10       1.0  0.41591873635879734  0.4773390613408924  0.7547988845327537  1.0000
  O   O11       1.0  0.8393486920951003  0.22473761399231765  0.8299518722840703  1.0000
  O   O12       1.0  0.16065014319317322  0.775259357910912  0.17004421035433376  1.0000
  O   O13       1.0  0.9835588456800436  0.3346220353343341  0.7612945360784025  1.0000
  O   O14       1.0  0.01644147143035468  0.6653760381873184  0.23870970473551276  1.0000
  O   O15       1.0  0.7664003209566557  0.0092299816051309  0.8290037268129851  1.0000
  O   O16       1.0  0.23360007533552352  0.9907703686690044  0.17098698996110062  1.0000
  O   O17       1.0  0.9946101810346872  0.7530120681344104  0.7667167833925959  1.0000
  O   O18       1.0  0.00539692992274608  0.24698389072516852  0.23328220176750852  1.0000
