data_image0
_chemical_formula_structural       Cu4H28C28S4I4N4
_chemical_formula_sum              "Cu4 H28 C28 S4 I4 N4"
_cell_length_a       5.369321211249227
_cell_length_b       7.821586925331977
_cell_length_c       21.20262839931484
_cell_angle_alpha    94.93650154934619
_cell_angle_beta     90.00067178882396
_cell_angle_gamma    89.99902868769077

_space_group_name_H-M_alt    "P 1"
_space_group_IT_number       1

loop_
  _space_group_symop_operation_xyz
  'x, y, z'

loop_
  _atom_site_type_symbol
  _atom_site_label
  _atom_site_symmetry_multiplicity
  _atom_site_fract_x
  _atom_site_fract_y
  _atom_site_fract_z
  _atom_site_occupancy
  Cu  Cu1       1.0  0.7571399137062187  0.9845961187065838  0.49437924690262497  1.0000
  Cu  Cu2       1.0  0.2571341419504947  0.5153941638077839  0.005621879475860705  1.0000
  Cu  Cu3       1.0  0.24284904644527935  0.015396515751234602  0.5056208159846564  1.0000
  Cu  Cu4       1.0  0.7428510933206739  0.48459587741204757  0.9943762194680517  1.0000
  H   H1        1.0  0.0098020957754414  0.846656850204418  0.3698981048157606  1.0000
  H   H2        1.0  0.5097986300004679  0.6533810702728005  0.13010751836270634  1.0000
  H   H3        1.0  0.9901924516971261  0.1533357975967036  0.6301029017694975  1.0000
  H   H4        1.0  0.49018288003404115  0.34664493555705894  0.8698940115979854  1.0000
  H   H5        1.0  0.7196973760366775  0.7441221073167694  0.28383418503710806  1.0000
  H   H6        1.0  0.21970129266455268  0.7559224895247068  0.21616939922517286  1.0000
  H   H7        1.0  0.28030648352075366  0.25587049362694353  0.7161635186412668  1.0000
  H   H8        1.0  0.7803081536602081  0.24411761190552272  0.7838311362957954  1.0000
  H   H9        1.0  0.8101873042415875  0.47504587787689445  0.21642070047673204  1.0000
  H   H10       1.0  0.310204031613118  0.025004873380481695  0.28358442334249656  1.0000
  H   H11       1.0  0.189838904443981  0.5249570224244736  0.783579668683892  1.0000
  H   H12       1.0  0.6898259015755173  0.9750275350923939  0.7164163543794262  1.0000
  H   H13       1.0  0.18776309814617057  0.3025953180170474  0.23817469569628005  1.0000
  H   H14       1.0  0.6878151698507082  0.19742597680465224  0.2618306192769921  1.0000
  H   H15       1.0  0.8122351742525498  0.6973960732553195  0.761828159997279  1.0000
  H   H16       1.0  0.31223525036582334  0.802585912841806  0.7381704897078479  1.0000
  H   H17       1.0  0.471030700047507  0.40051517022745736  0.32590734696929513  1.0000
  H   H18       1.0  0.9710679682982433  0.09948129097537618  0.17410085576795356  1.0000
  H   H19       1.0  0.5289601228286785  0.5994672984766609  0.6740994873759832  1.0000
  H   H20       1.0  0.028976864745985195  0.9005190427142934  0.825899436859217  1.0000
  H   H21       1.0  0.5120395803694252  0.45388244644200165  0.4297422596917002  1.0000
  H   H22       1.0  0.01203243114945  0.0461137708932071  0.0702599251226843  1.0000
  H   H23       1.0  0.4879475174284665  0.5461102348330015  0.5702611061117581  1.0000
  H   H24       1.0  0.987962116237128  0.9538736569580594  0.9297347943576428  1.0000
  H   H25       1.0  0.6931040958711138  0.6198337418233634  0.46667076540847324  1.0000
  H   H26       1.0  0.1931034922008195  0.8801623182807105  0.033327051246296015  1.0000
  H   H27       1.0  0.3068699648178921  0.38015889271489556  0.5333292974601989  1.0000
  H   H28       1.0  0.8068687059914481  0.11982898620488669  0.9666696704231871  1.0000
  C   C1        1.0  0.4340316409826101  0.6940473976694221  0.4034639906071932  1.0000
  C   C2        1.0  0.9340357387525914  0.8059550906818274  0.09653799862051933  1.0000
  C   C3        1.0  0.5659740810562897  0.305947816582531  0.5965370925487221  1.0000
  C   C4        1.0  0.06597557050554309  0.19404007673283266  0.9034597816238732  1.0000
  C   C5        1.0  0.25846156878974114  0.6301269913447028  0.35377789616900673  1.0000
  C   C6        1.0  0.758466453435595  0.8698877188786939  0.14622820742176404  1.0000
  C   C7        1.0  0.741538565984655  0.3698682429976117  0.6462246025164333  1.0000
  C   C8        1.0  0.2415504431424793  0.1301152149066169  0.853774520954737  1.0000
  C   C9        1.0  0.0467517161500624  0.7269630994451645  0.34113294057372917  1.0000
  C   C10       1.0  0.5467522060471808  0.7730666757205923  0.1588692423001987  1.0000
  C   C11       1.0  0.9532372438917066  0.27303205471667974  0.6588638959517541  1.0000
  C   C12       1.0  0.4532386162356588  0.22695033389646113  0.8411310760326389  1.0000
  C   C13       1.0  0.8842593833144577  0.6688827757645794  0.2929124306341535  1.0000
  C   C14       1.0  0.384264687032861  0.8311548711309341  0.20708858042581826  1.0000
  C   C15       1.0  0.11573143921384602  0.33110594873584626  0.707083270810884  1.0000
  C   C16       1.0  0.6157354472539681  0.1688736743626009  0.7929111387328334  1.0000
  C   C17       1.0  0.9336614390515406  0.5162976172677175  0.25563822050308  1.0000
  C   C18       1.0  0.43367214173268565  0.9837356397452554  0.24436232726132803  1.0000
  C   C19       1.0  0.0663386955984109  0.48369754352054156  0.7443590878818542  1.0000
  C   C20       1.0  0.5663317175074383  0.0162864961370133  0.7556376723557037  1.0000
  C   C21       1.0  0.1447252349129116  0.41982972125097  0.26772488703702635  1.0000
  C   C22       1.0  0.6447639387228962  0.08019070826515667  0.2322769792385629  1.0000
  C   C23       1.0  0.8552544129953361  0.5801628664499888  0.7322718729201159  1.0000
  C   C24       1.0  0.35526040745293846  0.9198224848378442  0.7677255835285807  1.0000
  C   C25       1.0  0.30452992087297304  0.47470963700298086  0.31713845970909205  1.0000
  C   C26       1.0  0.8045527234071628  0.0252949246102929  0.18286149720402992  1.0000
  C   C27       1.0  0.6954609017763858  0.525276574480145  0.6828609399432397  1.0000
  C   C28       1.0  0.19546976033302604  0.9747118054177332  0.8171375712505053  1.0000
  S   S1        1.0  0.48606371699546713  0.9090461298846436  0.41502294017986696  1.0000
  S   S2        1.0  0.9860596464496043  0.5909493804362284  0.08497898759242872  1.0000
  S   S3        1.0  0.513925243202408  0.09093877829275951  0.5849750056552808  1.0000
  S   S4        1.0  0.013929313693985501  0.40904583390621946  0.9150220955425539  1.0000
  I   I1        1.0  0.0076192935315262  0.7545110386324294  0.5517715453185091  1.0000
  I   I2        1.0  0.5075785858734747  0.7454910393428519  0.948235334415962  1.0000
  I   I3        1.0  0.992371529044874  0.24548417569995704  0.4482295378188041  1.0000
  I   I4        1.0  0.49240664943050666  0.2545067749645256  0.0517681844985844  1.0000
  N   N1        1.0  0.5527453096781586  0.5814228277737  0.4357469601885314  1.0000
  N   N2        1.0  0.0527452304097977  0.9185786376853498  0.06425345183847501  1.0000
  N   N3        1.0  0.44724737538817994  0.41856854346863054  0.5642544799615409  1.0000
  N   N4        1.0  0.9472493168925027  0.08141778632844421  0.9357424792813306  1.0000
