data_image0
_chemical_formula_structural       FeCu2H8C12N8
_chemical_formula_sum              "Fe1 Cu2 H8 C12 N8"
_cell_length_a       6.551696827020931
_cell_length_b       7.913969602329378
_cell_length_c       7.6325849453684205
_cell_angle_alpha    110.12142901750195
_cell_angle_beta     99.33193051672383
_cell_angle_gamma    106.9036359212658

_space_group_name_H-M_alt    "P 1"
_space_group_IT_number       1

loop_
  _space_group_symop_operation_xyz
  'x, y, z'

loop_
  _atom_site_type_symbol
  _atom_site_label
  _atom_site_symmetry_multiplicity
  _atom_site_fract_x
  _atom_site_fract_y
  _atom_site_fract_z
  _atom_site_occupancy
  Fe  Fe1       1.0  0.001209385468690998  0.025488143617423  0.015708413144601308  1.0000
  Cu  Cu1       1.0  0.4805176131233606  0.8469542574223894  0.37225564147966156  1.0000
  Cu  Cu2       1.0  0.5176000878313687  0.15702696540775918  0.6388265192032423  1.0000
  H   H1        1.0  0.6519298133857631  0.17914191111558608  0.14797221262851679  1.0000
  H   H2        1.0  0.349441909419319  0.8068717968687621  0.829600797767853  1.0000
  H   H3        1.0  0.6554032982955105  0.5137387606186364  0.3316335988909885  1.0000
  H   H4        1.0  0.33041735362846936  0.4649810700041213  0.6377965360121893  1.0000
  H   H5        1.0  0.010195355186773473  0.8014801858659976  0.4218118309850851  1.0000
  H   H6        1.0  0.9733643653686173  0.18692993809094102  0.5630103364983726  1.0000
  H   H7        1.0  0.30621675174108276  0.42595489565665895  0.14982053980113358  1.0000
  H   H8        1.0  0.7119376382617447  0.5769668390487439  0.868551068412856  1.0000
  C   C1        1.0  0.6482858443239436  0.854447303089607  0.194143638736314  1.0000
  C   C2        1.0  0.3505487848603437  0.1578442244281888  0.8171544849360689  1.0000
  C   C3        1.0  0.6479713370677658  0.9206231084202299  0.6360948266555938  1.0000
  C   C4        1.0  0.35171762264982925  0.0784076740091848  0.37231457226850756  1.0000
  C   C5        1.0  0.7978900726169655  0.30932238781591065  0.19012018950792964  1.0000
  C   C6        1.0  0.20352772542275924  0.6781766243556998  0.794537360766654  1.0000
  C   C7        1.0  0.8013249294216962  0.4939243783678861  0.2911309590136781  1.0000
  C   C8        1.0  0.19207838142823164  0.4911818566497601  0.6888961666436872  1.0000
  C   C9        1.0  0.9955157754863035  0.6529718281349373  0.3415072817181155  1.0000
  C   C10       1.0  0.995924998532594  0.33693914455174917  0.6474772807259941  1.0000
  C   C11       1.0  0.16245007874469047  0.4467768390134593  0.19379031534528224  1.0000
  C   C12       1.0  0.8487702716235148  0.5511851822518634  0.8138677783847543  1.0000
  N   N1        1.0  0.7792577467281843  0.9096524146325533  0.11741976936987428  1.0000
  N   N2        1.0  0.22268082577947718  0.12034940414839211  0.9032168356731706  1.0000
  N   N3        1.0  0.778176336037312  0.9546418015465858  0.7823869989834764  1.0000
  N   N4        1.0  0.224868649278541  0.0728970810635445  0.23923449301362615  1.0000
  N   N5        1.0  0.9816118209957595  0.284761048003169  0.1430612742381286  1.0000
  N   N6        1.0  0.02993230393276754  0.7056777522279277  0.8558008709006304  1.0000
  N   N7        1.0  0.1765032875010417  0.6280799679094141  0.290666269812732  1.0000
  N   N8        1.0  0.8227430414998408  0.3666062624497001  0.7102143526958217  1.0000
