data_image0
_chemical_formula_structural       H20Pd2C20I12N4
_chemical_formula_sum              "H20 Pd2 C20 I12 N4"
_cell_length_a       5.855422222074646
_cell_length_b       10.696642485051264
_cell_length_c       17.174422199107248
_cell_angle_alpha    76.10272241056936
_cell_angle_beta     80.24800777647708
_cell_angle_gamma    74.09168318934417

_space_group_name_H-M_alt    "P 1"
_space_group_IT_number       1

loop_
  _space_group_symop_operation_xyz
  'x, y, z'

loop_
  _atom_site_type_symbol
  _atom_site_label
  _atom_site_symmetry_multiplicity
  _atom_site_fract_x
  _atom_site_fract_y
  _atom_site_fract_z
  _atom_site_occupancy
  H   H1        1.0  0.18555778846234705  0.1489095487104208  0.3697475003997681  1.0000
  H   H2        1.0  0.7032429680017671  0.35178742921803524  0.1302429533976195  1.0000
  H   H3        1.0  0.8144454785181732  0.8510917179415433  0.6302458358242548  1.0000
  H   H4        1.0  0.29674665188226623  0.648217997842437  0.86975651259133  1.0000
  H   H5        1.0  0.22006765250896604  0.18510149612034613  0.21890088802422272  1.0000
  H   H6        1.0  0.6244962142579878  0.31488141621477445  0.28092844412754664  1.0000
  H   H7        1.0  0.7799624694749665  0.8148908219327711  0.7810932025020493  1.0000
  H   H8        1.0  0.3754964854384038  0.685122011396345  0.7190708079128643  1.0000
  H   H9        1.0  0.6067176589481702  0.07955897077835773  0.14471799633302854  1.0000
  H   H10       1.0  0.8326197501733144  0.41943605162757785  0.35555690792779165  1.0000
  H   H11       1.0  0.3933146762075733  0.9204275461646109  0.8552824141438296  1.0000
  H   H12       1.0  0.1673775372705178  0.5805654315539073  0.6444440698710423  1.0000
  H   H13       1.0  0.9460048726461062  0.9450865080585233  0.22521918487056775  1.0000
  H   H14       1.0  0.11689966344573581  0.5542745338633566  0.2750666632792901  1.0000
  H   H15       1.0  0.05400888617383952  0.054900238301129924  0.7747893300777805  1.0000
  H   H16       1.0  0.8830940852797434  0.4457318068037637  0.724929868304109  1.0000
  H   H17       1.0  0.8830205903233405  0.918292150150073  0.3749774414405494  1.0000
  H   H18       1.0  0.17555082483170267  0.5821321632191356  0.12540864394301113  1.0000
  H   H19       1.0  0.11698217479370471  0.08170353763149761  0.6250300555667822  1.0000
  H   H20       1.0  0.8244388891812299  0.41787218301465157  0.8745878553257143  1.0000
  Pd  Pd1       1.0  0.49999887738131554  2.2085438403036278e-06  0.49999935947353447  1.0000
  Pd  Pd2       1.0  0.9999977685842216  0.500001398923203  0.9999978683347809  1.0000
  C   C1        1.0  0.35031869116072983  0.10672927200215553  0.3348311476037793  1.0000
  C   C2        1.0  0.7913093004295815  0.3938704328271498  0.16511190805292844  1.0000
  C   C3        1.0  0.6496905169999815  0.8932691287423825  0.6651665675213962  1.0000
  C   C4        1.0  0.20868682057103152  0.606136870756089  0.8348834295739638  1.0000
  C   C5        1.0  0.37179309525055243  0.1259266672047588  0.2511271148921992  1.0000
  C   C6        1.0  0.7491440157426297  0.37412077625891993  0.24886202603894964  1.0000
  C   C7        1.0  0.628227293602599  0.8740676910418372  0.748868631144788  1.0000
  C   C8        1.0  0.25083747307461074  0.6258856651880577  0.751138068447439  1.0000
  C   C9        1.0  0.5866237813538715  0.06772897854251171  0.21012676840327066  1.0000
  C   C10       1.0  0.8652713042975361  0.431801275210603  0.2900692460110719  1.0000
  C   C11       1.0  0.4133963565675454  0.9322625902688846  0.7898760580253638  1.0000
  C   C12       1.0  0.134719580759615  0.5682030381502088  0.7099260929582912  1.0000
  C   C13       1.0  0.7748828763809994  0.9929350882995321  0.2544074399213088  1.0000
  C   C14       1.0  0.02232286378569608  0.5068130216762937  0.24578484224678487  1.0000
  C   C15       1.0  0.2251346429345486  0.007058515689315907  0.7455968603841755  1.0000
  C   C16       1.0  0.9776670628024883  0.49319146461478175  0.7542165971062573  1.0000
  C   C17       1.0  0.7417347590857513  0.9772404269839331  0.3379524727806569  1.0000
  C   C18       1.0  0.05623189991499064  0.5231022615643611  0.1621877918079946  1.0000
  C   C19       1.0  0.25827157953734997  0.022757219502864207  0.66205379661303  1.0000
  C   C20       1.0  0.9437547040988786  0.4769030554566884  0.8378077947670448  1.0000
  I   I1        1.0  0.2589292938973168  0.8199568714629137  0.514232902673399  1.0000
  I   I2        1.0  0.5924597237508845  0.680435485941139  0.9851749289621878  1.0000
  I   I3        1.0  0.7410723372637164  0.18004855914688994  0.4857666805685526  1.0000
  I   I4        1.0  0.40753057348366173  0.31956595009177147  0.014824390392504893  1.0000
  I   I5        1.0  0.3595712150772882  0.7539926271961407  0.3309526968948263  1.0000
  I   I6        1.0  0.4438648860671319  0.7454116077530415  0.16867272589794172  1.0000
  I   I7        1.0  0.6404204657767204  0.24600891602107572  0.669050402244828  1.0000
  I   I8        1.0  0.5561005846467564  0.25459097060898034  0.8313317458986448  1.0000
  I   I9        1.0  0.7877593716928498  0.5965399706929659  0.5085061402109617  1.0000
  I   I10       1.0  0.8911594845337238  0.9040077041038258  0.9912625669419342  1.0000
  I   I11       1.0  0.2122381620817249  0.4034585143949414  0.49149455766752953  1.0000
  I   I12       1.0  0.10883555495059473  0.09599276399694652  0.008737764735414499  1.0000
  N   N1        1.0  0.5329521766060806  0.03307528632900161  0.3772749552829567  1.0000
  N   N2        1.0  0.9424412660066607  0.46753057021931005  0.12269955428863709  1.0000
  N   N3        1.0  0.4670540121156883  0.9669271711890706  0.6227252270752004  1.0000
  N   N4        1.0  0.057548353877364795  0.5324748568411695  0.8772999117003054  1.0000
