data_image0
_chemical_formula_structural       Ho2Zn2H32C52N4Cl2O22
_chemical_formula_sum              "Ho2 Zn2 H32 C52 N4 Cl2 O22"
_cell_length_a       9.610915899295316
_cell_length_b       12.36520621673411
_cell_length_c       12.683402686428147
_cell_angle_alpha    74.02003945252041
_cell_angle_beta     84.22146101619211
_cell_angle_gamma    71.69732210685301

_space_group_name_H-M_alt    "P 1"
_space_group_IT_number       1

loop_
  _space_group_symop_operation_xyz
  'x, y, z'

loop_
  _atom_site_type_symbol
  _atom_site_label
  _atom_site_symmetry_multiplicity
  _atom_site_fract_x
  _atom_site_fract_y
  _atom_site_fract_z
  _atom_site_occupancy
  Ho  Ho1       1.0  0.7059380952263369  0.028549719456421506  0.9693460262258358  1.0000
  Ho  Ho2       1.0  0.29406084102701163  0.97144980601837  0.03065357320087257  1.0000
  Zn  Zn1       1.0  0.8363283961424203  0.8481390756328863  0.6887868651423688  1.0000
  Zn  Zn2       1.0  0.16367230639166055  0.1518613285897388  0.31121235753249726  1.0000
  H   H1        1.0  0.5635511687507633  0.24331986913855996  0.06257919361591747  1.0000
  H   H2        1.0  0.43644985677025977  0.7566796485037914  0.9374186677242733  1.0000
  H   H3        1.0  0.4484432918220095  0.17568287022914572  0.047997844201695686  1.0000
  H   H4        1.0  0.5515549916586695  0.8243184185500709  0.9520013273527328  1.0000
  H   H5        1.0  0.8370024859899634  0.7107757829691437  0.2842980516610112  1.0000
  H   H6        1.0  0.1629971736099733  0.28922462763372897  0.7157028276925104  1.0000
  H   H7        1.0  0.8089264429046921  0.5469999539463544  0.4442604957828991  1.0000
  H   H8        1.0  0.19107563234925357  0.45299956717186507  0.5557388594202521  1.0000
  H   H9        1.0  0.5600836339514502  0.5568697231673313  0.5304602814261798  1.0000
  H   H10       1.0  0.4399191612496978  0.4431306781509151  0.46953877843296965  1.0000
  H   H11       1.0  0.048908790448102576  0.759656195289409  0.5306917236951422  1.0000
  H   H12       1.0  0.9510925682580409  0.24034245055684522  0.46930950212279754  1.0000
  H   H13       1.0  0.4469869964582999  0.8420339757168093  0.5604910303013426  1.0000
  H   H14       1.0  0.5530119431944411  0.15796555468604373  0.4395101443961664  1.0000
  H   H15       1.0  0.30927349699265966  0.9577704714027249  0.693027575974064  1.0000
  H   H16       1.0  0.6907258345212527  0.04223081838833309  0.30697230180791024  1.0000
  H   H17       1.0  0.048111808079795516  0.965234984395309  0.7414265633414915  1.0000
  H   H18       1.0  0.9518861490145554  0.03476718603612029  0.2585723942768041  1.0000
  H   H19       1.0  0.16535494254830507  0.6734780055530081  0.20749819961935154  1.0000
  H   H20       1.0  0.8346425538106319  0.3265197595217373  0.7925019904953458  1.0000
  H   H21       1.0  0.10836481640431114  0.48194673807774563  0.29644455908309914  1.0000
  H   H22       1.0  0.8916317024953316  0.5180536744176648  0.703555776858579  1.0000
  H   H23       1.0  0.9224762337137662  0.43007336020590964  0.21517345676321756  1.0000
  H   H24       1.0  0.07752165620603796  0.5699261667210678  0.7848262240713453  1.0000
  H   H25       1.0  0.7390813924293554  0.37385935114883756  0.9967738690714256  1.0000
  H   H26       1.0  0.2609223853301826  0.6261384101408256  0.0032274078669444722  1.0000
  H   H27       1.0  0.593519422341103  0.6234378578196386  0.19435853615760118  1.0000
  H   H28       1.0  0.40648402733241074  0.37656078265820275  0.8056417392092357  1.0000
  H   H29       1.0  0.4114542671256913  0.5166185398213018  0.2846059596895927  1.0000
  H   H30       1.0  0.588548857861184  0.48338098477278635  0.7153948893764978  1.0000
  H   H31       1.0  0.4061500829077147  0.339664772950286  0.22786039238156525  1.0000
  H   H32       1.0  0.5938492469065012  0.6603365143767448  0.7721386977650085  1.0000
  C   C1        1.0  0.4558218770656452  0.7216755406774955  0.41842896532517665  1.0000
  C   C2        1.0  0.5441785024815005  0.2783257501254043  0.5815716186843505  1.0000
  C   C3        1.0  0.4687331286668127  0.8122119070884751  0.327352114822169  1.0000
  C   C4        1.0  0.5312671803063935  0.1877867352819108  0.6726476171328245  1.0000
  C   C5        1.0  0.6082368453430221  0.8061875512403844  0.27869394375539264  1.0000
  C   C6        1.0  0.3917645099637213  0.19381108967780847  0.7213057067917461  1.0000
  C   C7        1.0  0.7302253829289357  0.7119366470927775  0.32252695824955413  1.0000
  C   C8        1.0  0.2697753213048486  0.2880637595938751  0.6774730520607124  1.0000
  C   C9        1.0  0.7139312995730551  0.6209810535954787  0.4114260241431893  1.0000
  C   C10       1.0  0.2860714973277966  0.3790193501867948  0.5885738233513679  1.0000
  C   C11       1.0  0.5760138899414146  0.6255711914265519  0.4597646847542691  1.0000
  C   C12       1.0  0.4239864896057313  0.37443009937634036  0.540235899255265  1.0000
  C   C13       1.0  0.3363499648292463  0.9169207795721304  0.28924096377257774  1.0000
  C   C14       1.0  0.6636521070252999  0.08307873661802742  0.7107568161597655  1.0000
  C   C15       1.0  0.6281428988020681  0.8946992908390783  0.17619329555586208  1.0000
  C   C16       1.0  0.37185539147740343  0.1053020077962543  0.8238090265401753  1.0000
  C   C17       1.0  0.11066321833973809  0.8019744723737504  0.5652923285457447  1.0000
  C   C18       1.0  0.8893387914393642  0.1980224077040518  0.43470853750907423  1.0000
  C   C19       1.0  0.2574542718984888  0.7916420472824514  0.5365606675200354  1.0000
  C   C20       1.0  0.7425460421738137  0.20835660248002347  0.4634414273411665  1.0000
  C   C21       1.0  0.3324082542145066  0.8480615894166874  0.5818340728947505  1.0000
  C   C22       1.0  0.6675948035978293  0.15193529167294884  0.4181674993876144  1.0000
  C   C23       1.0  0.2559482244295453  0.9122767958371939  0.6554695592852156  1.0000
  C   C24       1.0  0.7440531325768944  0.08772184754503343  0.3445308788973236  1.0000
  C   C25       1.0  0.1102206675294468  0.9180347528322061  0.6823998994946193  1.0000
  C   C26       1.0  0.8897796414437666  0.08196388953818  0.317599832460374  1.0000
  C   C27       1.0  0.8742502621256848  0.5889319974059645  0.08355754802162356  1.0000
  C   C28       1.0  0.1257483494410252  0.4110684121850668  0.9164426251043452  1.0000
  C   C29       1.0  0.9068911227840742  0.6937709578934702  0.03237940993641792  1.0000
  C   C30       1.0  0.09310781516897039  0.30622857004534865  0.9676209771256908  1.0000
  C   C31       1.0  0.011851849302886014  0.7237295881895633  0.07840948028412952  1.0000
  C   C32       1.0  0.9881463704026526  0.2762690620132631  0.9215919897573742  1.0000
  C   C33       1.0  0.08388586871372188  0.6481074429845323  0.17392242840770678  1.0000
  C   C34       1.0  0.9161126790778413  0.35189032803010883  0.8260800432053375  1.0000
  C   C35       1.0  0.05088207324634204  0.54330808626262  0.2235326366689421  1.0000
  C   C36       1.0  0.9491175191790547  0.4566896808358011  0.776468965900847  1.0000
  C   C37       1.0  0.9455985697573582  0.5133486320290075  0.1788116010304037  1.0000
  C   C38       1.0  0.054399646548780885  0.48665001324575735  0.821188293740299  1.0000
  C   C39       1.0  0.8350224965245518  0.7704449040954698  0.9264070005082701  1.0000
  C   C40       1.0  0.16498199438340322  0.22955372753809655  0.07359083054450372  1.0000
  C   C41       1.0  0.0467745343333591  0.8360571391715864  0.02242039002193512  1.0000
  C   C42       1.0  0.9532244104184713  0.16394239862334817  0.9775831475817824  1.0000
  C   C43       1.0  0.6696328476936273  0.4061094921608797  0.06177376885857206  1.0000
  C   C44       1.0  0.3303668102066126  0.5938909159779656  0.9382263228595422  1.0000
  C   C45       1.0  0.681101117458546  0.5039304755788763  0.09064643078649937  1.0000
  C   C46       1.0  0.31889821235566984  0.4960708117481546  0.9093526593600815  1.0000
  C   C47       1.0  0.588464370327401  0.5456623876226558  0.1722427299051148  1.0000
  C   C48       1.0  0.4115349611865113  0.4543389021684021  0.8277571478768664  1.0000
  C   C49       1.0  0.4880559660927801  0.4860508668287267  0.22210894445310458  1.0000
  C   C50       1.0  0.5119444117546692  0.5139504215101383  0.7778908519210219  1.0000
  C   C51       1.0  0.4834629545279868  0.38813542270790446  0.18980405806341585  1.0000
  C   C52       1.0  0.5165346761800294  0.6118676293757377  0.8101946856187395  1.0000
  N   N1        1.0  0.03968563719249838  0.8634719677680066  0.6371329766525449  1.0000
  N   N2        1.0  0.9603136254471778  0.13652667605457225  0.3628668367103032  1.0000
  N   N3        1.0  0.5728460498019531  0.349519612069166  0.11073723334238392  1.0000
  N   N4        1.0  0.42715256006505353  0.6504807950578382  0.8892621521481842  1.0000
  Cl  Cl1       1.0  0.7654123109457345  0.7453786155648107  0.598005496439029  1.0000
  Cl  Cl2       1.0  0.23458145911477152  0.2546235582113497  0.40199299917527753  1.0000
  O   O1        1.0  0.3169440988458661  0.7232330230043618  0.4645614969164882  1.0000
  O   O2        1.0  0.6830579798074795  0.2767665030419195  0.5354394335574568  1.0000
  O   O3        1.0  0.3181445649240828  0.9983261207714024  0.33714897861306525  1.0000
  O   O4        1.0  0.6818540968201817  0.0016769076837874998  0.6628425949426173  1.0000
  O   O5        1.0  0.25442686450239194  0.9168970190522645  0.21734296792250518  1.0000
  O   O6        1.0  0.7455727848993661  0.08310337676643093  0.7826531856186066  1.0000
  O   O7        1.0  0.5240897280094997  0.9430190492379612  0.10647321470541725  1.0000
  O   O8        1.0  0.475904636147618  0.056978730049472404  0.8935303701744388  1.0000
  O   O9        1.0  0.7491197130485149  0.9181611978245171  0.15543702731478257  1.0000
  O   O10       1.0  0.25087276166485145  0.0818445173446776  0.8445653383673744  1.0000
  O   O11       1.0  0.7767810417039983  0.5609477754527603  0.029625013628667332  1.0000
  O   O12       1.0  0.2232196625297789  0.439052631233892  0.970374996681599  1.0000
  O   O13       1.0  0.9003529654743404  0.7489795193828431  0.8394117629907996  1.0000
  O   O14       1.0  0.09965820379449042  0.25102087524593497  0.16058822087632757  1.0000
  O   O15       1.0  0.7133347619953131  0.8504372369262967  0.9291287540078204  1.0000
  O   O16       1.0  0.2866687480539484  0.1495640371998803  0.07086764760114052  1.0000
  O   O17       1.0  0.9504368744004739  0.9188549088313207  0.9618657460998181  1.0000
  O   O18       1.0  0.0495617507638215  0.0811455204719493  0.03814072810936861  1.0000
  O   O19       1.0  0.1740855754922279  0.8396124772545548  0.036621228364211326  1.0000
  O   O20       1.0  0.825915071765202  0.16038530071182316  0.9633842309747324  1.0000
  O   O21       1.0  0.5494317700767938  0.180273641756763  0.029768997728297095  1.0000
  O   O22       1.0  0.4505661819184612  0.8197285212825774  0.9702275969837899  1.0000
