data_image0
_chemical_formula_structural       Tm8H84C108N4O56
_chemical_formula_sum              "Tm8 H84 C108 N4 O56"
_cell_length_a       10.822308146938205
_cell_length_b       18.63176944508714
_cell_length_c       19.452207668621973
_cell_angle_alpha    97.95369797618591
_cell_angle_beta     94.56271597726965
_cell_angle_gamma    106.14755242109807

_space_group_name_H-M_alt    "P 1"
_space_group_IT_number       1

loop_
  _space_group_symop_operation_xyz
  'x, y, z'

loop_
  _atom_site_type_symbol
  _atom_site_label
  _atom_site_symmetry_multiplicity
  _atom_site_fract_x
  _atom_site_fract_y
  _atom_site_fract_z
  _atom_site_occupancy
  Tm  Tm1       1.0  0.8241176617110708  0.10790113073917948  0.2068642254448676  1.0000
  Tm  Tm2       1.0  0.1758799575215093  0.8920984771085827  0.7931335714366555  1.0000
  Tm  Tm3       1.0  0.8256514586192623  0.39965129964982543  0.2042591926729074  1.0000
  Tm  Tm4       1.0  0.1743484935042333  0.6003454761653161  0.7957362981652807  1.0000
  Tm  Tm5       1.0  0.7618923976324012  0.6089396755139164  0.26664573936234603  1.0000
  Tm  Tm6       1.0  0.2381104829326759  0.39106329902977427  0.7333579245394618  1.0000
  Tm  Tm7       1.0  0.7607187958575422  0.8975460016172293  0.26904160775033154  1.0000
  Tm  Tm8       1.0  0.23928188411527876  0.1024598253884008  0.7309602587129335  1.0000
  H   H1        1.0  0.038551052016060815  0.10804109843819991  0.086587967317783  1.0000
  H   H2        1.0  0.9614498677997574  0.8919670003028771  0.9134136977784381  1.0000
  H   H3        1.0  0.9445816590210825  0.37652406128141536  0.9298802431348107  1.0000
  H   H4        1.0  0.05541192679760341  0.6234801184038973  0.07011331472445191  1.0000
  H   H5        1.0  0.08168461239916525  0.3425520438148269  0.9185587889171601  1.0000
  H   H6        1.0  0.9183142551353142  0.6574498464385102  0.08143629106944421  1.0000
  H   H7        1.0  0.10321022892370733  0.4416393876248677  0.939746475195193  1.0000
  H   H8        1.0  0.8967911909613875  0.5583675984592135  0.06025044227398272  1.0000
  H   H9        1.0  0.8682319311383111  0.37549956474528295  0.028475926699272194  1.0000
  H   H10       1.0  0.13175900581634886  0.6245103003455198  0.9715172121909178  1.0000
  H   H11       1.0  0.48406833569315205  0.10431926680670502  0.21962372329397792  1.0000
  H   H12       1.0  0.5159390661887996  0.8956814459398571  0.780376284234528  1.0000
  H   H13       1.0  0.2606701360747863  0.119508196727466  0.20305918391512284  1.0000
  H   H14       1.0  0.7393342055919945  0.8804953807938959  0.7969369252856  1.0000
  H   H15       1.0  0.22529081378728225  0.3428474904479303  0.02830934414580351  1.0000
  H   H16       1.0  0.7746950036925995  0.6571492785352149  0.9716931034963352  1.0000
  H   H17       1.0  0.17965000281192536  0.3758990566189766  0.1108135010691882  1.0000
  H   H18       1.0  0.8203230479335204  0.6240943471318373  0.8891857639776292  1.0000
  H   H19       1.0  0.25573457668240707  0.4418927232227289  0.0569025212967702  1.0000
  H   H20       1.0  0.7442578927113174  0.5581045799682656  0.9431039511092509  1.0000
  H   H21       1.0  0.10105035116406927  0.9019330949027379  0.2624675419610298  1.0000
  H   H22       1.0  0.8989455510082038  0.09806825019628457  0.7375242227901354  1.0000
  H   H23       1.0  0.32401789649800616  0.8859629128725928  0.2771680797603722  1.0000
  H   H24       1.0  0.675973678434346  0.11403729941644505  0.722824846845036  1.0000
  H   H25       1.0  0.9637889709277658  0.21933576614166841  0.4212900135928735  1.0000
  H   H26       1.0  0.036203290562255595  0.7806757256609984  0.5787178071695395  1.0000
  H   H27       1.0  0.056521303904538904  0.2790130921539529  0.5462570683003705  1.0000
  H   H28       1.0  0.9434855962476831  0.7209961045567467  0.45374968846102354  1.0000
  H   H29       1.0  0.9667667671431628  0.058454735232636786  0.6054482099296052  1.0000
  H   H30       1.0  0.03323811380239061  0.9415482580976403  0.3945509358517043  1.0000
  H   H31       1.0  0.8697522661181267  0.9996935428984131  0.48303162979125613  1.0000
  H   H32       1.0  0.13025346062359228  0.0003202321235704998  0.5169684707166269  1.0000
  H   H33       1.0  0.5872736783815357  0.279920042278718  0.03637156564983001  1.0000
  H   H34       1.0  0.41272530449254674  0.7200772513322136  0.9636342249238511  1.0000
  H   H35       1.0  0.4329768113245577  0.2163416616453233  0.9261171268277338  1.0000
  H   H36       1.0  0.5670370996667201  0.7836556162700747  0.07388585957217939  1.0000
  H   H37       1.0  0.36348684261488273  0.0027387196709512006  0.9981424762768896  1.0000
  H   H38       1.0  0.6365161967669765  0.9972591425327338  0.001861549328204115  1.0000
  H   H39       1.0  0.5223116485475146  0.06494509372885911  0.10540391132374793  1.0000
  H   H40       1.0  0.47768326128146305  0.9350516287356498  0.8946041571537721  1.0000
  H   H41       1.0  0.14124043759320412  0.4378673856755313  0.3027353416215846  1.0000
  H   H42       1.0  0.8587552165190786  0.5621339211185228  0.6972641171580847  1.0000
  H   H43       1.0  0.37958486642840933  0.49891883976990653  0.306469013201756  1.0000
  H   H44       1.0  0.6204174577954972  0.5010756324785248  0.6935319558007293  1.0000
  H   H45       1.0  0.4251022842870924  0.28774523467072294  0.20967964472710318  1.0000
  H   H46       1.0  0.5749030096700452  0.7122532079831246  0.7903209788070741  1.0000
  H   H47       1.0  0.18519033394539966  0.22507638080377032  0.20989306004477734  1.0000
  H   H48       1.0  0.8148180267834562  0.7749243349519261  0.790105970761566  1.0000
  H   H49       1.0  0.15451408592706178  0.7328398571251997  0.22757662020777053  1.0000
  H   H50       1.0  0.8454853617561255  0.26715460609584346  0.7724272789612101  1.0000
  H   H51       1.0  0.39681828683191595  0.788060639279365  0.23006587155101238  1.0000
  H   H52       1.0  0.6031805432568617  0.21193782061553887  0.7699338950098067  1.0000
  H   H53       1.0  0.43559200577244195  0.5630517100065903  0.19433421571189777  1.0000
  H   H54       1.0  0.5644139575766118  0.43694445625993694  0.805667171272873  1.0000
  H   H55       1.0  0.19478705080489794  0.5085042964500986  0.19047094488206545  1.0000
  H   H56       1.0  0.8052164864607291  0.4914907404710362  0.8095301634478531  1.0000
  H   H57       1.0  0.5832469701855416  0.5998874761163435  0.10523754330376528  1.0000
  H   H58       1.0  0.41673465901297396  0.4001177877773898  0.8947709440428043  1.0000
  H   H59       1.0  0.5808511483046175  0.3867610497709677  0.987205755905663  1.0000
  H   H60       1.0  0.41912677561941086  0.6132425098900144  0.012804365199564004  1.0000
  H   H61       1.0  0.9278498674093213  0.6125899791067583  0.48360644378372813  1.0000
  H   H62       1.0  0.07216535626939452  0.3874124933213992  0.516379303198491  1.0000
  H   H63       1.0  0.9654676423194246  0.39561781735807944  0.3987668088081335  1.0000
  H   H64       1.0  0.03455141851071629  0.6043817652140859  0.6012275020672817  1.0000
  H   H65       1.0  0.5930771567125107  0.5827404225499537  0.3645954245922952  1.0000
  H   H66       1.0  0.40692436582082087  0.4172563056564799  0.6354088844414819  1.0000
  H   H67       1.0  0.6877962959966482  0.6616817145818884  0.4023631190054076  1.0000
  H   H68       1.0  0.3122012218264203  0.3383161653183251  0.5976395858393888  1.0000
  H   H69       1.0  0.7072531355050131  0.9164964471161238  0.40144809161913747  1.0000
  H   H70       1.0  0.29274679020371513  0.083509930882947  0.598557406421584  1.0000
  H   H71       1.0  0.584481712363555  0.8512071831201453  0.3667218245286534  1.0000
  H   H72       1.0  0.4155215028974765  0.14879465322988486  0.6332822210984477  1.0000
  H   H73       1.0  0.1046957254164909  0.14944188201365452  0.9293149061171491  1.0000
  H   H74       1.0  0.8953072709099175  0.8505611104056926  0.07068516723801822  1.0000
  H   H75       1.0  0.004408059705504292  0.0538245672839821  0.9155458669165598  1.0000
  H   H76       1.0  0.9955968686665317  0.9461767210817412  0.08445357041092187  1.0000
  H   H77       1.0  0.1210821309976282  0.08983094129949622  0.9915959068045411  1.0000
  H   H78       1.0  0.8789224461411179  0.9101714827062183  0.008403661732884846  1.0000
  H   H79       1.0  0.804304369459878  0.1025146226274884  0.912184706339815  1.0000
  H   H80       1.0  0.19569532409777676  0.8974781662729825  0.08781332915253161  1.0000
  H   H81       1.0  0.8981058686909336  0.19963210465811437  0.9327949857873605  1.0000
  H   H82       1.0  0.1018857327595413  0.8003629748615992  0.06720240600319727  1.0000
  H   H83       1.0  0.7866512170896129  0.1601703780610393  0.9907454133618431  1.0000
  H   H84       1.0  0.213343576874685  0.8398218571131933  0.009251773274620192  1.0000
  C   C1        1.0  0.959472881454772  0.1273612985615884  0.06337673704896218  1.0000
  C   C2        1.0  0.04052503721358389  0.8726354533596351  0.936624297780192  1.0000
  C   C3        1.0  0.5493519520208071  0.983150411774425  0.2551825974215803  1.0000
  C   C4        1.0  0.4506486469257921  0.0168480311557531  0.7448198321120219  1.0000
  C   C5        1.0  0.04679881086833153  0.3856119914034934  0.9488809165788439  1.0000
  C   C6        1.0  0.9532012531705263  0.6143904609688775  0.05111481567042378  1.0000
  C   C7        1.0  0.4168502993762147  0.99379618861947  0.24845466885697218  1.0000
  C   C8        1.0  0.5831418413530328  0.006198306709158897  0.7515457595141657  1.0000
  C   C9        1.0  0.9592142026743743  0.3771744296713848  0.05955017297530671  1.0000
  C   C10       1.0  0.040775682240855864  0.6228314710322707  0.9404413579388661  1.0000
  C   C11       1.0  0.3993594638488815  0.060062518875291494  0.22811996118191052  1.0000
  C   C12       1.0  0.600638874387613  0.939934820246144  0.7718770603444938  1.0000
  C   C13       1.0  0.27545730214324493  0.06838782744418381  0.21897137831457772  1.0000
  C   C14       1.0  0.7245395815480932  0.9316140465762287  0.7810277068572873  1.0000
  C   C15       1.0  0.1676446183710709  0.0112622886940486  0.23091702558738797  1.0000
  C   C16       1.0  0.8323568484154366  0.9887339084927975  0.7690800121739871  1.0000
  C   C17       1.0  0.18765900663264287  0.3857000317092627  0.056936607742109395  1.0000
  C   C18       1.0  0.812328678929056  0.6142967356311501  0.943065425261402  1.0000
  C   C19       1.0  0.0345801841242519  0.0209029602836566  0.2228555948519499  1.0000
  C   C20       1.0  0.9654203612610456  0.9790966642524874  0.7771377330573728  1.0000
  C   C21       1.0  0.1853408440880244  0.9454206160177137  0.2523074956064164  1.0000
  C   C22       1.0  0.8146578619190947  0.054575590017393004  0.7476888817748133  1.0000
  C   C23       1.0  0.3090166156212604  0.9367894725111938  0.2607161805830671  1.0000
  C   C24       1.0  0.6909741096689643  0.06320561676771062  0.7392796232534807  1.0000
  C   C25       1.0  0.864141433553918  0.06898908395167067  0.37027933589433104  1.0000
  C   C26       1.0  0.13586152419141242  0.9310269333490455  0.6297275968948669  1.0000
  C   C27       1.0  0.9120751551110258  0.10591942273394749  0.4447193092751718  1.0000
  C   C28       1.0  0.08791374620297884  0.8940887058373903  0.5552812039578612  1.0000
  C   C29       1.0  0.9640400495508528  0.18495301636146877  0.46232606785500263  1.0000
  C   C30       1.0  0.0359380088573503  0.8150522763543863  0.5376781194164764  1.0000
  C   C31       1.0  0.016504089855466475  0.21773254364958913  0.5309656122366277  1.0000
  C   C32       1.0  0.9834927734525747  0.7822749864987273  0.46903781782818754  1.0000
  C   C33       1.0  0.020104061873219285  0.17210857647874178  0.5823673775879855  1.0000
  C   C34       1.0  0.9798950538245919  0.8278978214941829  0.4176344807577976  1.0000
  C   C35       1.0  0.08906343363315729  0.2068029861308034  0.6543157459022809  1.0000
  C   C36       1.0  0.9109363950370906  0.7932050891718205  0.34569099939797354  1.0000
  C   C37       1.0  0.9643435152869416  0.093485050757991  0.5652187433071207  1.0000
  C   C38       1.0  0.0356485514977011  0.9065162823045086  0.43477692833269543  1.0000
  C   C39       1.0  0.9100941394633323  0.0608996790959182  0.4969651482702418  1.0000
  C   C40       1.0  0.08989339383813208  0.939107338461142  0.5030310319743664  1.0000
  C   C41       1.0  0.6599816847542995  0.21332531275591998  0.1404783902236701  1.0000
  C   C42       1.0  0.34001198332932586  0.7866742651796556  0.8595269040931444  1.0000
  C   C43       1.0  0.5635790237261276  0.17596290436259923  0.0767987475664  1.0000
  C   C44       1.0  0.43641529721207917  0.824034394631994  0.9232078231362308  1.0000
  C   C45       1.0  0.5377254186864064  0.2191867460840484  0.026792826414748623  1.0000
  C   C46       1.0  0.4622744899599168  0.7808105454286789  0.9732130133072446  1.0000
  C   C47       1.0  0.4520524104505057  0.18432501132993906  0.9665451220754093  1.0000
  C   C48       1.0  0.5479560264084712  0.815670579317434  0.03345683511038541  1.0000
  C   C49       1.0  0.38941030072116684  0.10601846863103499  0.9562697251596292  1.0000
  C   C50       1.0  0.6105944661235087  0.8939771355164581  0.04373100956247811  1.0000
  C   C51       1.0  0.30304574970679  0.0675538565112603  0.889533041764523  1.0000
  C   C52       1.0  0.6969657539239051  0.9324440072379616  0.11046732269343806  1.0000
  C   C53       1.0  0.41266135906202084  0.0633715863402529  0.007135013325253696  1.0000
  C   C54       1.0  0.5873371981091042  0.9366245967118662  0.9928659804730773  1.0000
  C   C55       1.0  0.5003909125766198  0.0979618098291368  0.06663273879591002  1.0000
  C   C56       1.0  0.4996050883979209  0.902034936073818  0.9333702494775694  1.0000
  C   C57       1.0  0.0070407395336005135  0.2922966841983694  0.25152713918735975  1.0000
  C   C58       1.0  0.9929595638231846  0.7076989559767737  0.7484682204408912  1.0000
  C   C59       1.0  0.1503176620088382  0.3281675224536187  0.2556373580962871  1.0000
  C   C60       1.0  0.8496908718886188  0.6718263708901873  0.7443633518299819  1.0000
  C   C61       1.0  0.20440847720397673  0.4051659133174396  0.2834768612311436  1.0000
  C   C62       1.0  0.7956007574996137  0.5948330800535118  0.7165255878810797  1.0000
  C   C63       1.0  0.3367935813567229  0.43892935336032207  0.28554423072137075  1.0000
  C   C64       1.0  0.6632224519111886  0.5610684845759124  0.7144594570895038  1.0000
  C   C65       1.0  0.4159645108732875  0.3967318504170266  0.2582833474250492  1.0000
  C   C66       1.0  0.5840417044850666  0.6032631648875153  0.7417209859611873  1.0000
  C   C67       1.0  0.5565052309087193  0.43471435953513554  0.2559297190599708  1.0000
  C   C68       1.0  0.443491842488541  0.565280694627063  0.7440705322965828  1.0000
  C   C69       1.0  0.3618057553548439  0.3194436581988284  0.23074026291714492  1.0000
  C   C70       1.0  0.638201288737271  0.6805530523110761  0.7692653668769225  1.0000
  C   C71       1.0  0.2298377460830565  0.28516572431382053  0.2302097924528042  1.0000
  C   C72       1.0  0.7701711103440515  0.7148304535337645  0.769788151430241  1.0000
  C   C73       1.0  0.020505743689120927  0.5848827458655989  0.21456345993789233  1.0000
  C   C74       1.0  0.9795007611242286  0.4151145488353906  0.7854391332755882  1.0000
  C   C75       1.0  0.16179920288393376  0.6176670137533689  0.20944115608859448  1.0000
  C   C76       1.0  0.8381949961581227  0.3823297440069807  0.7905601950825771  1.0000
  C   C77       1.0  0.2174198884652939  0.6965895563156154  0.2194718791280934  1.0000
  C   C78       1.0  0.7825783814363517  0.30340605996561004  0.7805290244911164  1.0000
  C   C79       1.0  0.3506381002502863  0.7269861507714737  0.22116792629773133  1.0000
  C   C80       1.0  0.6493613496184094  0.2730100250751164  0.7788341425193723  1.0000
  C   C81       1.0  0.429552962880706  0.6787369248349293  0.21328409192181402  1.0000
  C   C82       1.0  0.5704558875149317  0.3212631990686887  0.7867195142708214  1.0000
  C   C83       1.0  0.57381085972753  0.7120716517398618  0.22213508664697204  1.0000
  C   C84       1.0  0.4262015371258059  0.287935288736506  0.777866524083727  1.0000
  C   C85       1.0  0.37340702351666993  0.5999322112450401  0.20058835842497302  1.0000
  C   C86       1.0  0.6265961150891783  0.40006566628063917  0.7994125895687105  1.0000
  C   C87       1.0  0.240003087227997  0.569562763714849  0.1984242690075604  1.0000
  C   C88       1.0  0.759994046287119  0.43043624671803116  0.8015795929176406  1.0000
  C   C89       1.0  0.6869069254510549  0.4847306906137233  0.10832249513910598  1.0000
  C   C90       1.0  0.3130857925277297  0.515275734814921  0.8916764544923764  1.0000
  C   C91       1.0  0.591525340866376  0.49256704304101373  0.0516314625953243  1.0000
  C   C92       1.0  0.40847089995116187  0.5074319745973951  0.9483713243111042  1.0000
  C   C93       1.0  0.5462417756424002  0.5566043678953816  0.05882479673693546  1.0000
  C   C94       1.0  0.45375436595114127  0.4433946344210327  0.9411810677809028  1.0000
  C   C95       1.0  0.5448062080859869  0.43611295672285877  0.9923952508431598  1.0000
  C   C96       1.0  0.4551802749398489  0.5638871945545461  0.0076117922072711924  1.0000
  C   C97       1.0  0.879716655981035  0.5099877556843353  0.3648024709432748  1.0000
  C   C98       1.0  0.12028229371503586  0.49000506340465233  0.6351898731131913  1.0000
  C   C99       1.0  0.9408662253868129  0.5046347118626218  0.4348848045809249  1.0000
  C   C100      1.0  0.0591630249694646  0.49536090157333484  0.5651043846162411  1.0000
  C   C101      1.0  0.9599391302893068  0.5635724506035942  0.49159276227788956  1.0000
  C   C102      1.0  0.040089944712860884  0.4364282726186913  0.5083965781512348  1.0000
  C   C103      1.0  0.9812586474730622  0.4408003798755685  0.4435342695914955  1.0000
  C   C104      1.0  0.018749303565101568  0.5591901439423097  0.5564592802502943  1.0000
  C   C105      1.0  0.05155045374175421  0.10388204767511411  0.9555859020419745  1.0000
  C   C106      1.0  0.9484528442059457  0.8961198014432482  0.04441557890895347  1.0000
  C   C107      1.0  0.8551034936614383  0.14868256749910097  0.9553002927895662  1.0000
  C   C108      1.0  0.1448914905338583  0.8513119317495851  0.04469823128555111  1.0000
  N   N1        1.0  0.9559135174097051  0.12728397661165056  0.9943694150182054  1.0000
  N   N2        1.0  0.04408896615604615  0.8727144672294643  0.0056320869415315755  1.0000
  N   N3        1.0  0.05986451896200149  0.38082671610675334  0.023007297389312984  1.0000
  N   N4        1.0  0.9401291264494632  0.6191723359165664  0.9769896997846388  1.0000
  O   O1        1.0  0.6439184709716557  0.034163740910976494  0.24023996907433806  1.0000
  O   O2        1.0  0.3560767387148186  0.965834740145048  0.7597570362170957  1.0000
  O   O3        1.0  0.5615920539033183  0.922344935618227  0.2740471220945579  1.0000
  O   O4        1.0  0.4384018909439219  0.0776512604785538  0.7259531130270247  1.0000
  O   O5        1.0  0.018756962260390288  0.07808454282137228  0.19835655313102762  1.0000
  O   O6        1.0  0.981245839989057  0.921921844205094  0.8016460147432056  1.0000
  O   O7        1.0  0.9422406281768119  0.9712749326268479  0.2414352868311198  1.0000
  O   O8        1.0  0.05775857405362219  0.028725819432828797  0.7585601748807775  1.0000
  O   O9        1.0  0.878030312325862  0.11012005422343661  0.3232047285831713  1.0000
  O   O10       1.0  0.12196411054692644  0.8898880566513796  0.6767971054101523  1.0000
  O   O11       1.0  0.8142962171214875  0.9967714567975534  0.3591284904050909  1.0000
  O   O12       1.0  0.1857188026028354  0.0032440149753156997  0.6408692453634972  1.0000
  O   O13       1.0  0.13254538343970526  0.27808561021491585  0.6686285572937791  1.0000
  O   O14       1.0  0.8674632794355261  0.7219230461724636  0.3313720523622976  1.0000
  O   O15       1.0  0.10132991332633881  0.16195829996495092  0.696826760268806  1.0000
  O   O16       1.0  0.8986659762579091  0.8380418533134486  0.3031761578475667  1.0000
  O   O17       1.0  0.6851437929132516  0.1707973220375649  0.182367810026264  1.0000
  O   O18       1.0  0.3148586206572119  0.82920677027046  0.8176395756321214  1.0000
  O   O19       1.0  0.7086373636897889  0.2842752103059425  0.1487991167515901  1.0000
  O   O20       1.0  0.2913629192837065  0.7157260859971118  0.8512005877696042  1.0000
  O   O21       1.0  0.2887027874145218  0.10981478694798599  0.8450830444504477  1.0000
  O   O22       1.0  0.7112924780187769  0.8901842251276265  0.15492123211338082  1.0000
  O   O23       1.0  0.2514649588411471  0.9963349615289869  0.8811022258915244  1.0000
  O   O24       1.0  0.7485552941223476  0.003661757911103799  0.11889639795028734  1.0000
  O   O25       1.0  0.9664110495519792  0.2208095251692086  0.24195405495885322  1.0000
  O   O26       1.0  0.033591555806573664  0.7791849904915368  0.7580381941446606  1.0000
  O   O27       1.0  0.9356406467180561  0.3360799822436745  0.25871077674457876  1.0000
  O   O28       1.0  0.06436188251038291  0.6639196585253941  0.7412785459794904  1.0000
  O   O29       1.0  0.6007988352193507  0.5050698532452386  0.2827391609739891  1.0000
  O   O30       1.0  0.3992062993959493  0.4949246178159258  0.7172609296029506  1.0000
  O   O31       1.0  0.6217484737556731  0.3955116124393285  0.22615921029053962  1.0000
  O   O32       1.0  0.37824953415589146  0.6044902901268686  0.7738337688068242  1.0000
  O   O33       1.0  0.9753991631944602  0.5133810945840198  0.20851255156856752  1.0000
  O   O34       1.0  0.02460188402390888  0.4866145154026072  0.7914884994955573  1.0000
  O   O35       1.0  0.9548997461156148  0.6316293265738934  0.22610646617611252  1.0000
  O   O36       1.0  0.04510596303862966  0.36836627802907157  0.7738938047590693  1.0000
  O   O37       1.0  0.61942619639332  0.7829055626974081  0.23968567887133221  1.0000
  O   O38       1.0  0.3805713550294811  0.2171014062428185  0.760316171356962  1.0000
  O   O39       1.0  0.6429123125019771  0.6670510245456995  0.21170526124846129  1.0000
  O   O40       1.0  0.35709309118501403  0.3329513820398304  0.7882974340486727  1.0000
  O   O41       1.0  0.7348300884142277  0.4294927729938606  0.10015331298350819  1.0000
  O   O42       1.0  0.26515992453197873  0.5705141923026319  0.8998522475402242  1.0000
  O   O43       1.0  0.7148028817703392  0.5344990281306892  0.16344797683544954  1.0000
  O   O44       1.0  0.2852019517487321  0.46550567016414846  0.8365508773996879  1.0000
  O   O45       1.0  0.8510847411377895  0.4519718661633334  0.3174512052571288  1.0000
  O   O46       1.0  0.14890496081664384  0.5480158385846606  0.6825456254366743  1.0000
  O   O47       1.0  0.8609942261647844  0.5731469239127377  0.35669427849049384  1.0000
  O   O48       1.0  0.13900593657299956  0.4268464598489459  0.643298204893398  1.0000
  O   O49       1.0  0.880849098592783  0.14675836343121768  0.10019010439869899  1.0000
  O   O50       1.0  0.11913902692034375  0.8532333349815033  0.8998035704091125  1.0000
  O   O51       1.0  0.6315928213871658  0.635594384365085  0.3594013306522967  1.0000
  O   O52       1.0  0.3684015987750371  0.36440292995150264  0.6406021624389311  1.0000
  O   O53       1.0  0.6779328539709512  0.8630339062329996  0.3788826907665594  1.0000
  O   O54       1.0  0.322073081199548  0.1369747641099721  0.6211162326389045  1.0000
  O   O55       1.0  0.9650844742155513  0.37643273259211446  0.1239080570611364  1.0000
  O   O56       1.0  0.034900859629033214  0.6235606821870903  0.8760841528851203  1.0000
