data_image0
_chemical_formula_structural       Zn8H78C78N18O32
_chemical_formula_sum              "Zn8 H78 C78 N18 O32"
_cell_length_a       18.5510657439757
_cell_length_b       19.180448607820782
_cell_length_c       19.944657189330623
_cell_angle_alpha    62.793554053663215
_cell_angle_beta     64.66824272461588
_cell_angle_gamma    61.29966679178829

_space_group_name_H-M_alt    "P 1"
_space_group_IT_number       1

loop_
  _space_group_symop_operation_xyz
  'x, y, z'

loop_
  _atom_site_type_symbol
  _atom_site_label
  _atom_site_symmetry_multiplicity
  _atom_site_fract_x
  _atom_site_fract_y
  _atom_site_fract_z
  _atom_site_occupancy
  Zn  Zn1       1.0  0.08837146694528285  0.9028880370094826  0.003910084911353824  1.0000
  Zn  Zn2       1.0  0.12228661229418242  0.06103689976611552  0.8557622851512147  1.0000
  Zn  Zn3       1.0  0.0661312170317387  0.0675309453505832  0.030009604321044495  1.0000
  Zn  Zn4       1.0  0.9328909580533205  0.07322198020278138  0.9670670660767224  1.0000
  Zn  Zn5       1.0  0.5097132375295601  0.6369251197828092  0.4173005678745551  1.0000
  Zn  Zn6       1.0  0.5426114399053573  0.49693225825224374  0.5826335150887586  1.0000
  Zn  Zn7       1.0  0.6709467708073759  0.47065970342378455  0.4188982904637795  1.0000
  Zn  Zn8       1.0  0.48464857230001007  0.4633542205914338  0.472942856162298  1.0000
  H   H1        1.0  0.3137411906065566  0.763721905584049  0.8497139250096734  1.0000
  H   H2        1.0  0.3397965896998515  0.852196949429704  0.7742050063993202  1.0000
  H   H3        1.0  0.1879033961168233  0.8811654797584795  0.7521320484348378  1.0000
  H   H4        1.0  0.2316170027462974  0.7696228176702319  0.7828492205201341  1.0000
  H   H5        1.0  0.40093648556553063  0.8783992351171932  0.538769293533086  1.0000
  H   H6        1.0  0.24050049652419864  0.1048097906898704  0.39050591404705387  1.0000
  H   H7        1.0  0.1045393896217277  0.2278016598937285  0.4057207156916574  1.0000
  H   H8        1.0  0.0996666822821553  0.1803751504151379  0.6318671033299451  1.0000
  H   H9        1.0  0.22929967516661526  0.05312102721263302  0.6287627416318384  1.0000
  H   H10       1.0  0.4374645912856253  0.7710088221507263  0.6215863038628767  1.0000
  H   H11       1.0  0.3928823986667424  0.706678683134797  0.7110185016287998  1.0000
  H   H12       1.0  0.3200066790671984  0.7834008268191397  0.5700238364161192  1.0000
  H   H13       1.0  0.30695322315568035  0.696533474410245  0.6550093950465196  1.0000
  H   H14       1.0  0.14528198119371896  0.787754016989595  0.2352847785494062  1.0000
  H   H15       1.0  0.13075505597595338  0.8829155377084206  0.24396539429451988  1.0000
  H   H16       1.0  0.28357172016212934  0.8640981780741939  0.13206339305227033  1.0000
  H   H17       1.0  0.2941010348181834  0.7567148913849879  0.17893142409721452  1.0000
  H   H18       1.0  0.29129436862475444  0.8795286986633429  0.34191810342528556  1.0000
  H   H19       1.0  0.38750355157940675  0.09449160395688239  0.18896601645727168  1.0000
  H   H20       1.0  0.3987242393578613  0.19270536784920714  0.05086239625671143  1.0000
  H   H21       1.0  0.23303878023049404  0.1265755250361025  0.02325989058209644  1.0000
  H   H22       1.0  0.2185866562956065  0.025440104802243  0.15527718941350335  1.0000
  H   H23       1.0  0.28228231005727633  0.7706501577063491  0.37192977940473776  1.0000
  H   H24       1.0  0.19768422600505184  0.7705356434746095  0.35323122577999294  1.0000
  H   H25       1.0  0.34668948755725637  0.663560928877544  0.27328965580444015  1.0000
  H   H26       1.0  0.2738702528151791  0.631211010568272  0.36186098672442296  1.0000
  H   H27       1.0  0.8821326688318718  0.8097527131936177  0.051072414387349024  1.0000
  H   H28       1.0  0.795679838157909  0.905773121781195  0.060992459809121366  1.0000
  H   H29       1.0  0.8486534072132557  0.8688633850465309  0.18363882242028515  1.0000
  H   H30       1.0  0.8904414102177965  0.7643672389276404  0.18188663674801117  1.0000
  H   H31       1.0  0.5909063618933389  0.8587402953801373  0.26177745059874274  1.0000
  H   H32       1.0  0.4707174188659734  0.08547958877507261  0.3388310676547518  1.0000
  H   H33       1.0  0.5093944273817428  0.204294261348295  0.317720003970102  1.0000
  H   H34       1.0  0.7103252939160356  0.1571488924393449  0.12518132482362884  1.0000
  H   H35       1.0  0.6826536773879752  0.0374950219878087  0.13875568914706077  1.0000
  H   H36       1.0  0.670404115305658  0.7687805667278482  0.21662736889896164  1.0000
  H   H37       1.0  0.7800458603193616  0.7166664402650937  0.17987164581018067  1.0000
  H   H38       1.0  0.7147465997247621  0.7278531410909751  0.344717147476274  1.0000
  H   H39       1.0  0.8054202151245491  0.6494158891694327  0.3072453553018876  1.0000
  H   H40       1.0  0.3775505511605743  0.35801500649782264  0.7685017270233274  1.0000
  H   H41       1.0  0.43646028829814293  0.27719183807018055  0.7267485473103361  1.0000
  H   H42       1.0  0.2962679562120415  0.3850996726497656  0.6549265436916301  1.0000
  H   H43       1.0  0.2520452879350188  0.3703583672208027  0.7569055973007222  1.0000
  H   H44       1.0  0.31850503961272375  0.12529904457331043  0.7159682428223845  1.0000
  H   H45       1.0  0.3066893444481522  0.1701234545723622  0.479022211859572  1.0000
  H   H46       1.0  0.31917421794078393  0.2762553827209616  0.3465304590066862  1.0000
  H   H47       1.0  0.4331244439164763  0.37825567343573147  0.39910395126814535  1.0000
  H   H48       1.0  0.4199237396151006  0.2809825673498878  0.5349330451540549  1.0000
  H   H49       1.0  0.33239756841839346  0.13150381553597162  0.8052605740677022  1.0000
  H   H50       1.0  0.3564006314622077  0.19667242074537944  0.8257852700597109  1.0000
  H   H51       1.0  0.17957506124740513  0.27970473946729163  0.8407555263854856  1.0000
  H   H52       1.0  0.22920338104877663  0.2173131326914586  0.9172292161897597  1.0000
  H   H53       1.0  0.8476210692393448  0.30090198231188486  0.5691709163890977  1.0000
  H   H54       1.0  0.765088396858758  0.26048262526676774  0.6234649912829225  1.0000
  H   H55       1.0  0.7213362561694863  0.3668039646991943  0.7046107960070952  1.0000
  H   H56       1.0  0.8335499202369545  0.3382088345454619  0.6733832416852861  1.0000
  H   H57       1.0  0.789276645925817  0.12292260806728451  0.883072899623087  1.0000
  H   H58       1.0  0.563067614063911  0.21456860952483942  0.07240030826567793  1.0000
  H   H59       1.0  0.4192957547425564  0.32808901394052015  0.0827842655980503  1.0000
  H   H60       1.0  0.4312430833571169  0.3786830263771608  0.8538562006123057  1.0000
  H   H61       1.0  0.576605215937839  0.2718598792438129  0.832150345930344  1.0000
  H   H62       1.0  0.8456714621730865  0.10191644900985612  0.7815768684803783  1.0000
  H   H63       1.0  0.855749830529156  0.15781980400350187  0.6815297361906473  1.0000
  H   H64       1.0  0.9584517199136047  0.21084003271604249  0.6821114703300706  1.0000
  H   H65       1.0  0.995092004985395  0.10503826150375059  0.6932773365070374  1.0000
  H   H66       1.0  0.618256305676134  0.2936356362101264  0.330472296510571  1.0000
  H   H67       1.0  0.7115944414022763  0.25374577566562806  0.3603299563782442  1.0000
  H   H68       1.0  0.7440827924513869  0.38590978606866605  0.23789182945940002  1.0000
  H   H69       1.0  0.6805874187802771  0.3714601704539504  0.2020429151978148  1.0000
  H   H70       1.0  0.94122185484612  0.15534677887240633  0.18612189352335654  1.0000
  H   H71       1.0  0.15404510898292761  0.20948871090399732  0.17161953357729223  1.0000
  H   H72       1.0  0.1777874676286615  0.30561527153625434  0.2060354970790143  1.0000
  H   H73       1.0  0.939091689131324  0.35233424929737106  0.36331701329829963  1.0000
  H   H74       1.0  0.9029901257707781  0.26331668165321526  0.3319609862999612  1.0000
  H   H75       1.0  0.828046703051676  0.150716658405365  0.20825849896148443  1.0000
  H   H76       1.0  0.7234949514333735  0.22141529251073416  0.20493439473644054  1.0000
  H   H77       1.0  0.8489080549818411  0.2931569684260325  0.07249372083123977  1.0000
  H   H78       1.0  0.7639526272683028  0.2767751222507755  0.07003012561118986  1.0000
  C   C1        1.0  0.22229497435973408  0.884250231313345  0.8586496062301164  1.0000
  C   C2        1.0  0.28828282148867845  0.8269703773718364  0.8107741217067781  1.0000
  C   C3        1.0  0.2472393803206715  0.8267337830462438  0.7569046879172203  1.0000
  C   C4        1.0  0.3054846808770436  0.8336729900511557  0.675788157966849  1.0000
  C   C5        1.0  0.32920004125032437  0.9999805002611383  0.4964994378156786  1.0000
  C   C6        1.0  0.24461911138418907  0.06845924856833822  0.5091793579401551  1.0000
  C   C7        1.0  0.2094153379481014  0.11923518922260712  0.4453818571415906  1.0000
  C   C8        1.0  0.13379922493431448  0.18757810241215372  0.45423042600505414  1.0000
  C   C9        1.0  0.1302872845504268  0.16113270122204432  0.5795417444605844  1.0000
  C   C10       1.0  0.20344872282350226  0.0895100876333998  0.5783166642262285  1.0000
  C   C11       1.0  0.37834283901422333  0.7573086095357766  0.6574502836205198  1.0000
  C   C12       1.0  0.3521284183063287  0.7288015597238414  0.6129110548850176  1.0000
  C   C13       1.0  0.4260194803836867  0.6698416458884396  0.5698059731648113  1.0000
  C   C14       1.0  0.1323171975480477  0.895468038193478  0.13278679559724782  1.0000
  C   C15       1.0  0.1632865512353661  0.8435238306472926  0.20585137881953847  1.0000
  C   C16       1.0  0.2615395208177772  0.8188768261209064  0.18678066562421242  1.0000
  C   C17       1.0  0.28111011183494133  0.823251481300069  0.25053207721700244  1.0000
  C   C18       1.0  0.2952693417211022  0.9941122320343255  0.266134608909482  1.0000
  C   C19       1.0  0.30401731351832956  0.0500563177696165  0.182724701129615  1.0000
  C   C20       1.0  0.3534496002869005  0.0999129828002054  0.15275846426440856  1.0000
  C   C21       1.0  0.3591750619615581  0.15447253736144972  0.07599907877766296  1.0000
  C   C22       1.0  0.2688300094887309  0.11748424916541471  0.05990543397571459  1.0000
  C   C23       1.0  0.26042214908991906  0.05966713514057179  0.1348378159328973  1.0000
  C   C24       1.0  0.26642580759281026  0.760277914512706  0.330931196632818  1.0000
  C   C25       1.0  0.31592704311171355  0.6676433506728756  0.3330797781760992  1.0000
  C   C26       1.0  0.38701952293699543  0.6228624285238381  0.3730091790169042  1.0000
  C   C27       1.0  0.9171883614619815  0.9076475740368152  0.03863751432655977  1.0000
  C   C28       1.0  0.8563814525046569  0.8610181485500875  0.0749087647516047  1.0000
  C   C29       1.0  0.8419609923094811  0.8267323509012101  0.1653551210658365  1.0000
  C   C30       1.0  0.7530323686402199  0.8252678442012353  0.20577084270456658  1.0000
  C   C31       1.0  0.5503553464715338  0.9800973869114455  0.2555514497551813  1.0000
  C   C32       1.0  0.5755237337669497  0.04988729956097869  0.24210958922206055  1.0000
  C   C33       1.0  0.5250919770712629  0.09933929091587151  0.29162362360837335  1.0000
  C   C34       1.0  0.5468311347016552  0.1653185509506869  0.2795259887321534  1.0000
  C   C35       1.0  0.6582555426208927  0.13929512779533576  0.1732910993181349  1.0000
  C   C36       1.0  0.6432902200106836  0.07108621109434671  0.18095776086136092  1.0000
  C   C37       1.0  0.7342114772659584  0.7500951777168157  0.2223092553099093  1.0000
  C   C38       1.0  0.7393573266893936  0.6902008951290809  0.30619034935661205  1.0000
  C   C39       1.0  0.6844445283881341  0.6374992891980612  0.3406319086010043  1.0000
  C   C40       1.0  0.43459014032306004  0.3952153837667326  0.6457149688955749  1.0000
  C   C41       1.0  0.38872478034544145  0.3413257774407938  0.718232296847219  1.0000
  C   C42       1.0  0.3067369156767085  0.3439140466383109  0.7127150368440667  1.0000
  C   C43       1.0  0.31152003269585293  0.2586181101112571  0.7242417623164595  1.0000
  C   C44       1.0  0.3501283280196715  0.15216220027032534  0.5980498518346946  1.0000
  C   C45       1.0  0.3603897402704561  0.2175107154408806  0.5190996865732913  1.0000
  C   C46       1.0  0.33353272706730763  0.2164454730062033  0.4638662557420474  1.0000
  C   C47       1.0  0.34132203537662065  0.27563621303985997  0.38960772056261556  1.0000
  C   C48       1.0  0.4037656570859199  0.332209192792874  0.4189038385951845  1.0000
  C   C49       1.0  0.3971186318799551  0.2768995076395199  0.49538703811433743  1.0000
  C   C50       1.0  0.31047872206715976  0.19584833196760343  0.8051854620474045  1.0000
  C   C51       1.0  0.22275223580958675  0.21641249997469467  0.8655668356903231  1.0000
  C   C52       1.0  0.17545175417623685  0.1581551123036533  0.8922733403823028  1.0000
  C   C53       1.0  0.721622467256509  0.3870519107023966  0.5646015649683843  1.0000
  C   C54       1.0  0.7835960589022335  0.3132734484694737  0.6098371487610661  1.0000
  C   C55       1.0  0.7809808905790093  0.31868255051809763  0.6854087455482726  1.0000
  C   C56       1.0  0.787221076787354  0.2372814836825229  0.7517756412211153  1.0000
  C   C57       1.0  0.6672570396630705  0.1648582793194677  0.9474094154393735  1.0000
  C   C58       1.0  0.582490368119181  0.23486791401570173  0.9508138563607103  1.0000
  C   C59       1.0  0.5363110145837668  0.2509255921417477  0.02226436101791049  1.0000
  C   C60       1.0  0.45585896618337063  0.31374731050809146  0.027894529453348672  1.0000
  C   C61       1.0  0.4624852733662551  0.34188110561775187  0.9013363998964505  1.0000
  C   C62       1.0  0.5441660417156058  0.2817232627406553  0.8889045364172429  1.0000
  C   C63       1.0  0.8574408156945311  0.1583424382343921  0.7358186681173817  1.0000
  C   C64       1.0  0.9476348329036737  0.1521103104411168  0.7226582816965672  1.0000
  C   C65       1.0  0.97251093992454  0.12761711893046623  0.7956249020719209  1.0000
  C   C66       1.0  0.6316822780069842  0.37269065614621877  0.37013668985182585  1.0000
  C   C67       1.0  0.6689989268258502  0.31036645022670223  0.3266737642102553  1.0000
  C   C68       1.0  0.7217099267220206  0.34036787827501064  0.24168239338447242  1.0000
  C   C69       1.0  0.7985449231863626  0.26942955110318684  0.21767615504393945  1.0000
  C   C70       1.0  0.015403816309437011  0.1720788075287842  0.22417955121625244  1.0000
  C   C71       1.0  0.02590268262142101  0.2295404952022793  0.24813847353752286  1.0000
  C   C72       1.0  0.10443694936297018  0.24133496594642884  0.21349664754979605  1.0000
  C   C73       1.0  0.11747116781887705  0.294541630160687  0.233307913939221  1.0000
  C   C74       1.0  0.9852286995674645  0.32072332592471753  0.3199469324851022  1.0000
  C   C75       1.0  0.9649989209483252  0.2701375971674764  0.30315253083466576  1.0000
  C   C76       1.0  0.7901695736297896  0.21731769853236932  0.18535897844922292  1.0000
  C   C77       1.0  0.8187326308724394  0.24672581250477066  0.09415894008507317  1.0000
  C   C78       1.0  0.8845799007992242  0.17692670401169153  0.06026257499648575  1.0000
  N   N1        1.0  0.28777848305386305  0.9078289101446091  0.625360015428299  1.0000
  N   N2        1.0  0.3415210676037932  0.9216283367071298  0.5526294291163153  1.0000
  N   N3        1.0  0.09408441495487817  0.2094253548700991  0.519842537036652  1.0000
  N   N4        1.0  0.29659181433938653  0.8897470427227746  0.23110112939344418  1.0000
  N   N5        1.0  0.2999561285143529  0.9133482815615324  0.28357798572859844  1.0000
  N   N6        1.0  0.3178166578941272  0.16411806518751598  0.02919234716654269  1.0000
  N   N7        1.0  0.6972427887648961  0.8929014220368572  0.22195840610209652  1.0000
  N   N8        1.0  0.6135062083526677  0.903157529329512  0.2514608976369672  1.0000
  N   N9        1.0  0.6125320228279494  0.18567416429947065  0.22171441713299325  1.0000
  N   N10       1.0  0.31989282964066484  0.24724522223964132  0.6619100777116032  1.0000
  N   N11       1.0  0.3290771767227412  0.1717440616411068  0.6642059794325943  1.0000
  N   N12       1.0  0.37587272480908496  0.3332899028133838  0.3663170193555414  1.0000
  N   N13       1.0  0.7281866089083309  0.2422076860536819  0.8163926993494212  1.0000
  N   N14       1.0  0.731880207483215  0.17103619052610952  0.8794270845473089  1.0000
  N   N15       1.0  0.4184017299481653  0.35912425013221866  0.9689086039451309  1.0000
  N   N16       1.0  0.8680017901012747  0.257866556400792  0.22836119646686368  1.0000
  N   N17       1.0  0.9391387940255882  0.1921139051134304  0.21213416267178078  1.0000
  N   N18       1.0  0.05940168719919111  0.3342091652401393  0.28562734607150014  1.0000
  O   O1        1.0  0.05388436622545362  0.0260868301862871  0.9632499737892456  1.0000
  O   O2        1.0  0.20614178146905002  0.9627297148355964  0.822826616017714  1.0000
  O   O3        1.0  0.18673278190751566  0.8500893384425723  0.9292479009830499  1.0000
  O   O4        1.0  0.38735515236193413  0.010485744095163303  0.4365966383729825  1.0000
  O   O5        1.0  0.470743124475078  0.6008070243362483  0.6101652108737026  1.0000
  O   O6        1.0  0.4368917553534572  0.695009254857709  0.49615739593112107  1.0000
  O   O7        1.0  0.12491474523942266  0.972505296237948  0.10633262060834153  1.0000
  O   O8        1.0  0.11723348127204505  0.8587792032209975  0.10336220383472752  1.0000
  O   O9        1.0  0.28421428643199687  0.016964112810150297  0.31939644567553666  1.0000
  O   O10       1.0  0.3980749838782175  0.5465844834073011  0.4151689309041727  1.0000
  O   O11       1.0  0.43036159771823185  0.6650364972071331  0.36042494314878565  1.0000
  O   O12       1.0  0.8827270644912842  0.9861081440295224  0.029277038900005423  1.0000
  O   O13       1.0  0.9970247966324879  0.865363896499275  0.023661332962333984  1.0000
  O   O14       1.0  0.47543120778507125  0.9881009731624744  0.27179815452310396  1.0000
  O   O15       1.0  0.7215235505739629  0.5584027597071852  0.3576826351731838  1.0000
  O   O16       1.0  0.6041905933878412  0.6780850720252617  0.35018509124041214  1.0000
  O   O17       1.0  0.4256137231521748  0.41032494507788186  0.5799221247787967  1.0000
  O   O18       1.0  0.48065414473555984  0.41898745371502605  0.6571816251623159  1.0000
  O   O19       1.0  0.35822233355564487  0.08114469162399017  0.6058705834436251  1.0000
  O   O20       1.0  0.1278770192171876  0.14636274592290022  0.962197036483253  1.0000
  O   O21       1.0  0.1854401996694293  0.1269682415365523  0.8429316285263153  1.0000
  O   O22       1.0  0.6575094561518428  0.437357204018099  0.5993081833707234  1.0000
  O   O23       1.0  0.7377853653544976  0.38956781992671097  0.49475523040315733  1.0000
  O   O24       1.0  0.680226124813082  0.1005867986811566  0.004310331973783763  1.0000
  O   O25       1.0  0.045897702271723496  0.12601277744595052  0.7853119781408961  1.0000
  O   O26       1.0  0.9192909531281043  0.10882840945359362  0.8617245389213789  1.0000
  O   O27       1.0  0.6777330488813006  0.41281434035705195  0.35605728595064057  1.0000
  O   O28       1.0  0.558526610610997  0.37828897315504406  0.4191861959189608  1.0000
  O   O29       1.0  0.07524637232661041  0.1082661878144435  0.21149377183079565  1.0000
  O   O30       1.0  0.868782234237699  0.1675022704256008  0.009320189007794986  1.0000
  O   O31       1.0  0.9519971466263896  0.13317164795630276  0.08463675044810497  1.0000
  O   O32       1.0  0.5509889066855324  0.517025157515043  0.4743459830209388  1.0000
