data_image0
_chemical_formula_structural       Na4H28C12S4O20
_chemical_formula_sum              "Na4 H28 C12 S4 O20"
_cell_length_a       5.610236923000284
_cell_length_b       6.195251104130645
_cell_length_c       18.52359480259163
_cell_angle_alpha    89.99964460133837
_cell_angle_beta     96.16358153080859
_cell_angle_gamma    89.99938758392481

_space_group_name_H-M_alt    "P 1"
_space_group_IT_number       1

loop_
  _space_group_symop_operation_xyz
  'x, y, z'

loop_
  _atom_site_type_symbol
  _atom_site_label
  _atom_site_symmetry_multiplicity
  _atom_site_fract_x
  _atom_site_fract_y
  _atom_site_fract_z
  _atom_site_occupancy
  Na  Na1       1.0  0.7488943016617708  0.44067851578127204  0.23313797757475635  1.0000
  Na  Na2       1.0  0.7510913842125005  0.9406724493798818  0.2668620422205449  1.0000
  Na  Na3       1.0  0.2510970050243343  0.5593232231605326  0.7668633669597253  1.0000
  Na  Na4       1.0  0.2488999121092589  0.05931960473466801  0.7331382222873442  1.0000
  H   H1        1.0  0.2550219622287456  0.9564458236080496  0.0058984061353299965  1.0000
  H   H2        1.0  0.24498762057605455  0.4564308768120782  0.4941036580103883  1.0000
  H   H3        1.0  0.744983681688147  0.04356398596337391  0.9941028522063887  1.0000
  H   H4        1.0  0.7550162357830315  0.5435724762051066  0.5058980836289635  1.0000
  H   H5        1.0  0.5955923441246397  0.6360467527470846  0.9073409863464832  1.0000
  H   H6        1.0  0.9044279151239037  0.1360588059274406  0.5926609428770317  1.0000
  H   H7        1.0  0.40441684898669894  0.36395337200426775  0.09265660533147718  1.0000
  H   H8        1.0  0.0955885065471449  0.863946161149805  0.40734281592494165  1.0000
  H   H9        1.0  0.8881286263930118  0.5409238268832083  0.9361717821914722  1.0000
  H   H10       1.0  0.6118838587552132  0.04092794225917369  0.5638279371895363  1.0000
  H   H11       1.0  0.11187875304418067  0.4590779120373086  0.06382359267794159  1.0000
  H   H12       1.0  0.3881307597190469  0.9590705682791453  0.4361746848523183  1.0000
  H   H13       1.0  0.724002801493917  0.6786481096038984  0.3936515429455909  1.0000
  H   H14       1.0  0.7759987953114018  0.17864822949105272  0.10635221828218279  1.0000
  H   H15       1.0  0.2759974640592091  0.3213504010179946  0.6063495452213628  1.0000
  H   H16       1.0  0.22399966697301466  0.8213551235689566  0.8936477331107608  1.0000
  H   H17       1.0  0.4959980383357631  0.5860851534455875  0.3518090595166824  1.0000
  H   H18       1.0  0.004009081971169298  0.086090335207345  0.14819314824832464  1.0000
  H   H19       1.0  0.5039950768217735  0.4139133571925698  0.6481939618090777  1.0000
  H   H20       1.0  0.9959929763424848  0.9139162461032697  0.8518079966382571  1.0000
  H   H21       1.0  0.12720713512490528  0.622126296106792  0.30167591439150937  1.0000
  H   H22       1.0  0.37278692463158336  0.1221302096407513  0.19832040746368304  1.0000
  H   H23       1.0  0.8727859331464884  0.3778673721585761  0.6983222467669277  1.0000
  H   H24       1.0  0.6272097396279503  0.8778731434335401  0.8016789471804557  1.0000
  H   H25       1.0  0.21131504291933817  0.7079342309074901  0.22937900465664277  1.0000
  H   H26       1.0  0.288685101136167  0.2079327522748642  0.27061787317229846  1.0000
  H   H27       1.0  0.7886852069742573  0.29206750800886994  0.7706204634485869  1.0000
  H   H28       1.0  0.7113044127996914  0.7920593018386413  0.7293834146445375  1.0000
  C   C1        1.0  0.3825349690854478  0.8007345296723187  0.12189435486561707  1.0000
  C   C2        1.0  0.11745872484314646  0.30072783620767757  0.37811346502336096  1.0000
  C   C3        1.0  0.6174670840768496  0.19926236680593232  0.8781062500136156  1.0000
  C   C4        1.0  0.882532613069571  0.6992819734013836  0.6218911196167127  1.0000
  C   C5        1.0  0.392639919231648  0.6873531737611741  0.047571805418137096  1.0000
  C   C6        1.0  0.10736765287364843  0.18734356532216617  0.452424809921041  1.0000
  C   C7        1.0  0.6073692581893437  0.31265502170338516  0.9524241661921451  1.0000
  C   C8        1.0  0.8926433800384572  0.8126452603970333  0.5475776986736207  1.0000
  C   C9        1.0  0.7017444035804842  0.5437315873007619  0.949593830314903  1.0000
  C   C10       1.0  0.7982680459112356  0.04372286031563279  0.5504058821786373  1.0000
  C   C11       1.0  0.2982683907525469  0.4562749939752422  0.05040549487196699  1.0000
  C   C12       1.0  0.20174838628853556  0.9562659653556338  0.4495989566816902  1.0000
  S   S1        1.0  0.716561457014606  0.686528520541181  0.0349711710013381  1.0000
  S   S2        1.0  0.7834453710377074  0.18652343498960278  0.46502788087316554  1.0000
  S   S3        1.0  0.2834405387533749  0.31347644669111213  0.9650234936562043  1.0000
  S   S4        1.0  0.2165602781949119  0.8134702331809434  0.5349739175076422  1.0000
  O   O1        1.0  0.4764714809815017  0.7058899313862812  0.17849599063496407  1.0000
  O   O2        1.0  0.02350175530482089  0.20587390916809772  0.3214957211407707  1.0000
  O   O3        1.0  0.523525167659585  0.29411019342416006  0.8215017439553944  1.0000
  O   O4        1.0  0.9764823697693642  0.7941181449831305  0.6785043164489153  1.0000
  O   O5        1.0  0.27968203031326766  0.9833991523215888  0.11957302237302507  1.0000
  O   O6        1.0  0.22033969124663594  0.48339788069197454  0.3804223523440696  1.0000
  O   O7        1.0  0.7203218155581863  0.016613885543271992  0.8804276392159165  1.0000
  O   O8        1.0  0.779648019471878  0.5165909451617524  0.6195777987086827  1.0000
  O   O9        1.0  0.25555114245783267  0.8012854500061054  0.9918971029643512  1.0000
  O   O10       1.0  0.2444426584118559  0.30127965158228415  0.5081001112539809  1.0000
  O   O11       1.0  0.7444418944431275  0.19872274554609248  0.008097818060718997  1.0000
  O   O12       1.0  0.7555522391110326  0.6987220873360724  0.4919018867588532  1.0000
  O   O13       1.0  0.6526769389878381  0.6483741221865174  0.3435937665753953  1.0000
  O   O14       1.0  0.8473070576122834  0.1483871404758332  0.15640356156190893  1.0000
  O   O15       1.0  0.34731615012526607  0.35162116019800754  0.6564065546580691  1.0000
  O   O16       1.0  0.15268780860181855  0.851619440891888  0.8435951963294598  1.0000
  O   O17       1.0  0.06725711640942929  0.6948359389191482  0.2552489726646029  1.0000
  O   O18       1.0  0.4327271059612058  0.19483678723376133  0.24475228697269802  1.0000
  O   O19       1.0  0.9327359413846064  0.3051658000543256  0.7447481084454137  1.0000
  O   O20       1.0  0.5672623975075622  0.8051617234482649  0.7552479207976999  1.0000
