data_image0
_chemical_formula_structural       Ho2H62C54O28
_chemical_formula_sum              "Ho2 H62 C54 O28"
_cell_length_a       9.134201209916252
_cell_length_b       12.671880052477206
_cell_length_c       13.027701206581376
_cell_angle_alpha    94.04600485315888
_cell_angle_beta     93.66382093158632
_cell_angle_gamma    92.7015003636289

_space_group_name_H-M_alt    "P 1"
_space_group_IT_number       1

loop_
  _space_group_symop_operation_xyz
  'x, y, z'

loop_
  _atom_site_type_symbol
  _atom_site_label
  _atom_site_symmetry_multiplicity
  _atom_site_fract_x
  _atom_site_fract_y
  _atom_site_fract_z
  _atom_site_occupancy
  Ho  Ho1       1.0  0.7475691995521956  0.4889064884828045  0.48664632767049193  1.0000
  Ho  Ho2       1.0  0.2524414953830743  0.5110994456796477  0.5133570698276273  1.0000
  H   H1        1.0  0.6456115199102755  0.2837401979243026  0.43075514259246717  1.0000
  H   H2        1.0  0.3543841044282487  0.7162688055115606  0.5692407679635139  1.0000
  H   H3        1.0  0.49523854277016  0.3391462951624931  0.4054346553454806  1.0000
  H   H4        1.0  0.5047481085065684  0.6608611984702578  0.5945691607538989  1.0000
  H   H5        1.0  0.808433071373301  0.46485224976743905  0.2821793204219532  1.0000
  H   H6        1.0  0.19156569487144282  0.535156064674979  0.7178259196780913  1.0000
  H   H7        1.0  0.9672244920924129  0.43721458197629187  0.3296149414950804  1.0000
  H   H8        1.0  0.0327749591453212  0.5627873727992209  0.6703876592879681  1.0000
  H   H9        1.0  0.22832410167512762  0.5916374348589245  0.2722655562959275  1.0000
  H   H10       1.0  0.7716780918786627  0.40835321602602903  0.7277157964651906  1.0000
  H   H11       1.0  0.5577297106207979  0.8015274015175889  0.0644769184665037  1.0000
  H   H12       1.0  0.4422840060467692  0.19847203038876415  0.9355101309135633  1.0000
  H   H13       1.0  0.6615663959184844  0.7070979433222107  0.21184572767472787  1.0000
  H   H14       1.0  0.33842043557117313  0.29291106143559636  0.7881512766419618  1.0000
  H   H15       1.0  0.0312535614343403  0.5376199643695969  0.16474954260784358  1.0000
  H   H16       1.0  0.9687445211758288  0.4623771787753696  0.8352473353227836  1.0000
  H   H17       1.0  0.8885188446184032  0.6198917743704229  0.12120795520932151  1.0000
  H   H18       1.0  0.11148538672426159  0.38009734473631335  0.8787780165570422  1.0000
  H   H19       1.0  0.9878981351250217  0.6523310451106641  0.2436492369452239  1.0000
  H   H20       1.0  0.0121156686167296  0.34766829737592525  0.7563293673508582  1.0000
  H   H21       1.0  0.4097615647041977  0.9233044986425725  0.9857567034900752  1.0000
  H   H22       1.0  0.5902352275111227  0.0766886006279748  0.014232197299143908  1.0000
  H   H23       1.0  0.282287219441521  0.8799661661561091  0.8793994911862696  1.0000
  H   H24       1.0  0.7177320997480477  0.12003485124297701  0.12058716435856098  1.0000
  H   H25       1.0  0.4394563415426306  0.8044363593158296  0.9063746301107328  1.0000
  H   H26       1.0  0.5605590161785372  0.19557184493776691  0.09361838670044875  1.0000
  H   H27       1.0  0.6263843780132134  0.8124130095081625  0.6880487626034081  1.0000
  H   H28       1.0  0.3736100788812777  0.1875952161754668  0.3119485792930091  1.0000
  H   H29       1.0  0.9692510976507976  0.7550625726335766  0.9884304184928466  1.0000
  H   H30       1.0  0.030742705421190012  0.2449361473299732  0.011566336414702503  1.0000
  H   H31       1.0  0.9452427450315997  0.6256425411817972  0.837570109677074  1.0000
  H   H32       1.0  0.054750755369497014  0.37436723440521297  0.16242420389755097  1.0000
  H   H33       1.0  0.6115452973291371  0.9926051369732602  0.6886721037277111  1.0000
  H   H34       1.0  0.3884570867154551  0.0073921030595514026  0.3113334401414534  1.0000
  H   H35       1.0  0.4998641313086053  0.0632529863728735  0.7755053185272303  1.0000
  H   H36       1.0  0.5001255556808247  0.9367496868392777  0.22449146010445992  1.0000
  H   H37       1.0  0.45711076351945223  0.9255729620738292  0.738734328601687  1.0000
  H   H38       1.0  0.5428910780171775  0.0744304913026497  0.2612600353561305  1.0000
  H   H39       1.0  0.8742340750734884  0.8411310310383724  0.12945522906253606  1.0000
  H   H40       1.0  0.12577080731478674  0.15887014092891855  0.8705475988729603  1.0000
  H   H41       1.0  0.8928448866542241  0.9822563729162539  0.1502801266785454  1.0000
  H   H42       1.0  0.1071574666526658  0.0177400505860135  0.8497230650701509  1.0000
  H   H43       1.0  0.022103902229595525  0.9126332049928364  0.0761564290772512  1.0000
  H   H44       1.0  0.9778991593850039  0.08737351637285681  0.9238473985760507  1.0000
  H   H45       1.0  0.7573194128572425  0.7507990817330207  0.4569565290530662  1.0000
  H   H46       1.0  0.24268814389224505  0.24919509661038566  0.5430583080402228  1.0000
  H   H47       1.0  0.10389724594558201  0.016809985366577997  0.3276001173412553  1.0000
  H   H48       1.0  0.8961131695734394  0.9831911471614205  0.6723983802529858  1.0000
  H   H49       1.0  0.18976551101067685  0.8414287932193358  0.37314010791413915  1.0000
  H   H50       1.0  0.8102358937186481  0.1585691720572484  0.6268592877778615  1.0000
  H   H51       1.0  0.5152478274093255  0.7994081218686873  0.3990367758679411  1.0000
  H   H52       1.0  0.48475511824464956  0.20059617429257767  0.6009622986286941  1.0000
  H   H53       1.0  0.44413220996373337  0.9083630296340601  0.4734521721019859  1.0000
  H   H54       1.0  0.5558780253423662  0.09163659176887508  0.5265531372749449  1.0000
  H   H55       1.0  0.5876072533046043  0.8342659465403274  0.5287437987664845  1.0000
  H   H56       1.0  0.41239127867478237  0.16572338271615183  0.4712626257741944  1.0000
  H   H57       1.0  0.016363658824595003  0.17705387676283382  0.37288956301691206  1.0000
  H   H58       1.0  0.9836388816854226  0.8229448987822465  0.6271114722742794  1.0000
  H   H59       1.0  0.8607307961146021  0.22926411423475906  0.30675670841446834  1.0000
  H   H60       1.0  0.13925720140058934  0.7707306844513866  0.6932441322556498  1.0000
  H   H61       1.0  0.9676567063579072  0.13384696869442786  0.24068657877355554  1.0000
  H   H62       1.0  0.032336598431371016  0.8661446301081239  0.7593105036272546  1.0000
  C   C1        1.0  0.512813107740655  0.5876120069951226  0.33885063744476435  1.0000
  C   C2        1.0  0.4871659241958  0.41239795567637566  0.6611629194601604  1.0000
  C   C3        1.0  0.45136505537251287  0.6431955321635742  0.2503500538172929  1.0000
  C   C4        1.0  0.5486405604293764  0.3567983823155673  0.7496401053316787  1.0000
  C   C5        1.0  0.2986483444181545  0.6375833965469085  0.22589003011311348  1.0000
  C   C6        1.0  0.7013567973413828  0.36241920525475285  0.7740983086906255  1.0000
  C   C7        1.0  0.2400746274213645  0.6874463816533309  0.1423812548520544  1.0000
  C   C8        1.0  0.759921746595225  0.31253866611870507  0.8575948730212559  1.0000
  C   C9        1.0  0.3338218562739926  0.747589398828282  0.08293377269766472  1.0000
  C   C10       1.0  0.6661696686791957  0.25239017776296885  0.9170494692600002  1.0000
  C   C11       1.0  0.4852798370344473  0.7547298747177822  0.10893579738899462  1.0000
  C   C12       1.0  0.5147074140123495  0.24526965057417274  0.8910629783571905  1.0000
  C   C13       1.0  0.543757143554835  0.7016979531244658  0.19137986176531294  1.0000
  C   C14       1.0  0.45623878438021137  0.29829914564110277  0.808613067063497  1.0000
  C   C15       1.0  0.99584707679616  0.6193366301807685  0.1639405342819629  1.0000
  C   C16       1.0  0.004148174494510201  0.3806501382050981  0.8360486877026216  1.0000
  C   C17       1.0  0.3566812915453639  0.8538379463522004  0.9406112600666532  1.0000
  C   C18       1.0  0.643328775166168  0.1461567596093118  0.059378401117704996  1.0000
  C   C19       1.0  0.7719893693041443  0.6347160779091537  0.6617566468626846  1.0000
  C   C20       1.0  0.22799956095693835  0.36527719526081637  0.33824952533394276  1.0000
  C   C21       1.0  0.7830925109291587  0.7100469943354852  0.753539544857581  1.0000
  C   C22       1.0  0.21689822569241812  0.2899557295181054  0.2464618953971964  1.0000
  C   C23       1.0  0.700322447601053  0.8010362324137289  0.7545292778328303  1.0000
  C   C24       1.0  0.299672585316003  0.19896404931631653  0.2454653269151095  1.0000
  C   C25       1.0  0.7121734696573229  0.8749623343943327  0.8389313303154822  1.0000
  C   C26       1.0  0.2878091502669021  0.1250348882901946  0.1610747551780136  1.0000
  C   C27       1.0  0.808117205128788  0.8571164223957053  0.9258642043221385  1.0000
  C   C28       1.0  0.19187903203457074  0.1428871435816887  0.07414139959110598  1.0000
  C   C29       1.0  0.891286611741606  0.7673626116304816  0.924214244536415  1.0000
  C   C30       1.0  0.10870848172523041  0.23264015220748044  0.0757904875125419  1.0000
  C   C31       1.0  0.8784944057582323  0.6944305860137663  0.8385600724578666  1.0000
  C   C32       1.0  0.12151478925004261  0.3055839604425472  0.1614345398672157  1.0000
  C   C33       1.0  0.5462471161812986  0.986865817612468  0.7564554493025355  1.0000
  C   C34       1.0  0.45375340052024177  0.013136171546342702  0.2435502776337799  1.0000
  C   C35       1.0  0.906773090782366  0.9149027644023564  0.09531072262936394  1.0000
  C   C36       1.0  0.09322860919487401  0.08509998625054752  0.9046920374966942  1.0000
  C   C37       1.0  0.0294072866818667  0.6821240118753095  0.4490641277444425  1.0000
  C   C38       1.0  0.9705973540180608  0.31787401590582925  0.5509408077328287  1.0000
  C   C39       1.0  0.9785870988102943  0.7858038906240309  0.41804653303687184  1.0000
  C   C40       1.0  0.021422030527183708  0.2141965860877733  0.5819649119214247  1.0000
  C   C41       1.0  0.831219015611616  0.8101185230672455  0.42856150085464856  1.0000
  C   C42       1.0  0.1687912425163489  0.18988192299530482  0.5714469283776538  1.0000
  C   C43       1.0  0.7832651766383449  0.9090172528924184  0.4068420585918702  1.0000
  C   C44       1.0  0.21673905663357831  0.090993634283727  0.5931812622264516  1.0000
  C   C45       1.0  0.8821180548358285  0.9848512600515061  0.3692963643636489  1.0000
  C   C46       1.0  0.11789322126094254  0.015149269168759406  0.630719797431368  1.0000
  C   C47       1.0  0.027645792750504907  0.9592129901874028  0.3566480495847983  1.0000
  C   C48       1.0  0.9723702215879866  0.0407931240206167  0.6433717464145728  1.0000
  C   C49       1.0  0.07609837555830273  0.8608068924163207  0.3819233191891271  1.0000
  C   C50       1.0  0.9239202246308195  0.13918638238887132  0.6180797373662799  1.0000
  C   C51       1.0  0.542550672902017  0.8656190032474099  0.45740452006598525  1.0000
  C   C52       1.0  0.45746290035489795  0.1343814240290016  0.5426017716025128  1.0000
  C   C53       1.0  0.9242272486463179  0.15890310466355828  0.3149239787137148  1.0000
  C   C54       1.0  0.07577160325411819  0.8410901365352074  0.6850780839962096  1.0000
  O   O1        1.0  0.650571687646341  0.5720076932381132  0.34514872487580556  1.0000
  O   O2        1.0  0.3494145096330072  0.428011859517234  0.6548726599139769  1.0000
  O   O3        1.0  0.4292262182028423  0.5576641131062701  0.4070569561081924  1.0000
  O   O4        1.0  0.5707624322092145  0.4423410403467826  0.592949894610875  1.0000
  O   O5        1.0  0.9359578361949303  0.6076283157207669  0.46337530724652953  1.0000
  O   O6        1.0  0.06405078879527083  0.3923633498654625  0.5366263868197478  1.0000
  O   O7        1.0  0.16776586804062527  0.6706105344499773  0.4613491212093804  1.0000
  O   O8        1.0  0.8322404220615172  0.3293795756318048  0.5386554355377697  1.0000
  O   O9        1.0  0.09416557062953501  0.6830462646854444  0.11001546325189078  1.0000
  O   O10       1.0  0.9058527775933812  0.3169387879108001  0.8899586979545547  1.0000
  O   O11       1.0  0.26578254800171663  0.7935144393303377  0.0031632142159879312  1.0000
  O   O12       1.0  0.7342108280300721  0.206477086310592  0.9968269585706577  1.0000
  O   O13       1.0  0.6445589525508596  0.9413604692573327  0.42078725079873175  1.0000
  O   O14       1.0  0.3554458576692666  0.0586416249184012  0.5792279098110242  1.0000
  O   O15       1.0  0.825098567933928  0.07871979448817969  0.34790108034758294  1.0000
  O   O16       1.0  0.17491181407049083  0.9212830686497426  0.6521113343064754  1.0000
  O   O17       1.0  0.6826226166278884  0.648905028057257  0.5841098377196942  1.0000
  O   O18       1.0  0.3173652560852176  0.3510882026003372  0.4158924405887561  1.0000
  O   O19       1.0  0.8521531176256758  0.5539905223560736  0.6571995305671761  1.0000
  O   O20       1.0  0.147844232496503  0.4460130292302081  0.3428045930898874  1.0000
  O   O21       1.0  0.6378429296674638  0.965712332805701  0.8454697103687037  1.0000
  O   O22       1.0  0.36213552061462917  0.034287201937267794  0.15453092687310027  1.0000
  O   O23       1.0  0.8117870535488693  0.9314603133924989  0.006284306478455907  1.0000
  O   O24       1.0  0.18820278805472415  0.0685455934255685  0.9937188096954515  1.0000
  O   O25       1.0  0.6028559107027718  0.3414032231746091  0.395159999993048  1.0000
  O   O26       1.0  0.39712446796500694  0.658609877420993  0.6048507368488458  1.0000
  O   O27       1.0  0.858902000178425  0.4227764642561028  0.3319910181307151  1.0000
  O   O28       1.0  0.1411030782544387  0.5772262025781103  0.668003462552278  1.0000
