data_image0
_chemical_formula_structural       Zn4H40C40S4N16O8
_chemical_formula_sum              "Zn4 H40 C40 S4 N16 O8"
_cell_length_a       9.593268958
_cell_length_b       11.925638094388697
_cell_length_c       13.99
_cell_angle_alpha    93.07114917606503
_cell_angle_beta     90.0
_cell_angle_gamma    90.0

_space_group_name_H-M_alt    "P 1"
_space_group_IT_number       1

loop_
  _space_group_symop_operation_xyz
  'x, y, z'

loop_
  _atom_site_type_symbol
  _atom_site_label
  _atom_site_symmetry_multiplicity
  _atom_site_fract_x
  _atom_site_fract_y
  _atom_site_fract_z
  _atom_site_occupancy
  Zn  Zn1       1.0  0.7269961918647141  0.2474919156745088  0.1156811661685566  1.0000
  Zn  Zn2       1.0  0.2269987435496645  0.2525076564382118  0.384317670615637  1.0000
  Zn  Zn3       1.0  0.2730018319580196  0.7525097477577489  0.8843180520454156  1.0000
  Zn  Zn4       1.0  0.7730055346583384  0.7474940069940459  0.6156808328020489  1.0000
  H   H1        1.0  0.6185201338540409  0.3232276698145711  0.9263852186289725  1.0000
  H   H2        1.0  0.1185122615635521  0.1767761009761699  0.5736180986879589  1.0000
  H   H3        1.0  0.3814799747637778  0.6767756730888976  0.07361622067586641  1.0000
  H   H4        1.0  0.8814857622591816  0.8232238829848768  0.4263803280277187  1.0000
  H   H5        1.0  0.9859444201355814  0.44004077050379914  0.17252711718487754  1.0000
  H   H6        1.0  0.48595948059105615  0.0599688784361732  0.3274807573667928  1.0000
  H   H7        1.0  0.0140504764945248  0.559961732664064  0.8274814317317762  1.0000
  H   H8        1.0  0.5140364584365926  0.9400269068468532  0.6725196219826942  1.0000
  H   H9        1.0  0.5768492496382294  0.0005726996820457  0.10520699884649082  1.0000
  H   H10       1.0  0.0768559709133498  0.4994260326950765  0.3947953735681082  1.0000
  H   H11       1.0  0.4231393926066147  0.9994239253365862  0.8947934188540004  1.0000
  H   H12       1.0  0.9231483072946461  0.5005764704727866  0.6052117457559874  1.0000
  H   H13       1.0  0.9905132485705934  0.785883359874262  0.9758586764372907  1.0000
  H   H14       1.0  0.4905262242309761  0.7141136769926958  0.5241406163983982  1.0000
  H   H15       1.0  0.009475393674250703  0.2141141048799753  0.0241482127807515  1.0000
  H   H16       1.0  0.509482223567197  0.2858846274971469  0.4758548744301265  1.0000
  H   H17       1.0  0.85165651414232  0.012522137329376898  0.2752223548362807  1.0000
  H   H18       1.0  0.3516465570567391  0.4874740758409288  0.22478204691414314  1.0000
  H   H19       1.0  0.1483529760534026  0.9874761671604658  0.7247795691587913  1.0000
  H   H20       1.0  0.6483514667659946  0.5125250683845195  0.7752141970616719  1.0000
  H   H21       1.0  0.0284188842399402  0.0361161885997348  0.3158624477590878  1.0000
  H   H22       1.0  0.5284079933746426  0.4638833835129929  0.18413567422881982  1.0000
  H   H23       1.0  0.9715937331484099  0.9638938721885635  0.6841385835575194  1.0000
  H   H24       1.0  0.47158898805055577  0.5361124017700405  0.8158597015466853  1.0000
  H   H25       1.0  0.9802737774966488  0.0763899081757131  0.1974858935847692  1.0000
  H   H26       1.0  0.48027215959142217  0.4236046255233887  0.3025141426859506  1.0000
  H   H27       1.0  0.0197398822892438  0.923614274463361  0.8025148692747879  1.0000
  H   H28       1.0  0.5197331610141235  0.5763945187020596  0.6974828160861507  1.0000
  H   H29       1.0  0.725204310486717  0.141629806999255  0.4216233916602192  1.0000
  H   H30       1.0  0.22518288702815434  0.3583664061710508  0.0783860136641934  1.0000
  H   H31       1.0  0.2748135188893528  0.8583601001345471  0.5783802932136339  1.0000
  H   H32       1.0  0.7748161791921291  0.6416310585831866  0.9216137275910228  1.0000
  H   H33       1.0  0.8123091340519082  0.2690051021177311  0.46958219384459454  1.0000
  H   H34       1.0  0.3122960497736926  0.23098943158136356  0.0304178424261181  1.0000
  H   H35       1.0  0.1876961865536373  0.7309906831652951  0.5304189003011714  1.0000
  H   H36       1.0  0.6877009316514986  0.7690063537016627  0.9695789629419522  1.0000
  H   H37       1.0  0.8971675909099446  0.132376760376907  0.4715238898323122  1.0000
  H   H38       1.0  0.3971482522464669  0.367625330942623  0.0284779211900315  1.0000
  H   H39       1.0  0.1028544080563023  0.8676249030553507  0.5284753283816528  1.0000
  H   H40       1.0  0.6028497715762668  0.6323712940760089  0.9715189225290503  1.0000
  C   C1        1.0  0.7136462065197122  0.3696692474031735  0.9447020752612473  1.0000
  C   C2        1.0  0.2136466734095706  0.1303362028587784  0.5552948855911453  1.0000
  C   C3        1.0  0.2863476477128515  0.630335774971499  0.0553044443195816  1.0000
  C   C4        1.0  0.7863492656180782  0.8696612618954588  0.4447027112752195  1.0000
  C   C5        1.0  0.8906307159120104  0.4343750743824656  0.029901672446392497  1.0000
  C   C6        1.0  0.3906301404043262  0.0656286964082753  0.4701109372222093  1.0000
  C   C7        1.0  0.1093589687303762  0.5656366658770438  0.9701037243499259  1.0000
  C   C8        1.0  0.6093762225987618  0.9343780054376083  0.5298906554866534  1.0000
  C   C9        1.0  0.9913846929173077  0.4646618184180582  0.09860153297485402  1.0000
  C   C10       1.0  0.4913799478194534  0.0353604265559824  0.4014054872493632  1.0000
  C   C11       1.0  0.0086049917250719  0.5353448834278254  0.9014050633079906  1.0000
  C   C12       1.0  0.508621203195915  0.9646378779338604  0.5985928627642991  1.0000
  C   C13       1.0  0.1007935881119693  0.5315862268635669  0.067081152591669  1.0000
  C   C14       1.0  0.600779570054037  0.9684158484170239  0.4329133667760843  1.0000
  C   C15       1.0  0.8991950541328678  0.4684187955111128  0.9329225078040225  1.0000
  C   C16       1.0  0.399211156985892  0.0315723792455742  0.5670830934329274  1.0000
  C   C17       1.0  0.682948641248757  0.9984750241038753  0.0776114117370028  1.0000
  C   C18       1.0  0.1829605745116041  0.501527890912314  0.4223867199631783  1.0000
  C   C19       1.0  0.3170410433936226  0.0015241201215659  0.92239055060908  1.0000
  C   C20       1.0  0.817049958081661  0.4984746122555492  0.5776103922129535  1.0000
  C   C21       1.0  0.8793696952450247  0.9398841517941463  0.019759707029130904  1.0000
  C   C22       1.0  0.3793816285078648  0.5601128850728117  0.480233152640011  1.0000
  C   C23       1.0  0.12061894699981932  0.06010911428207069  0.9802441312487531  1.0000
  C   C24       1.0  0.6206278616878507  0.43988961809505156  0.5197596707584182  1.0000
  C   C25       1.0  0.9937874192560515  0.8773473618804244  0.9850587416176922  1.0000
  C   C26       1.0  0.4937941405311719  0.6226505147221388  0.5149377303838705  1.0000
  C   C27       1.0  0.0062012229887927  0.1226492631382072  0.0149395316939476  1.0000
  C   C28       1.0  0.5062143072670012  0.37734946923890783  0.4850585519429487  1.0000
  C   C29       1.0  0.887218948750757  0.0598194054986294  0.0339435520454927  1.0000
  C   C30       1.0  0.38723505160377414  0.4401776474072818  0.46605445488939523  1.0000
  C   C31       1.0  0.1127644815063675  0.9401738605775876  0.9660502790844276  1.0000
  C   C32       1.0  0.612775480989491  0.5598248557605814  0.5339426572867296  1.0000
  C   C33       1.0  0.9441296850587051  0.0671360218177597  0.2711847808540355  1.0000
  C   C34       1.0  0.4441218127682163  0.4328601913525461  0.2288167617112578  1.0000
  C   C35       1.0  0.0558787627394679  0.932865641614498  0.7288151521562157  1.0000
  C   C36       1.0  0.5558762110545246  0.5671389528729023  0.7711809118571225  1.0000
  C   C37       1.0  0.8254965053800589  0.1846956474590939  0.43197692785130226  1.0000
  C   C38       1.0  0.3254792515116733  0.3153014054468102  0.0680246530649953  1.0000
  C   C39       1.0  0.1745171544058337  0.8153018172951433  0.5680220986076279  1.0000
  C   C40       1.0  0.67451981470861  0.6846952195718216  0.9319721906540792  1.0000
  S   S1        1.0  0.8996068011627187  0.2019849638133451  0.3196450213695031  1.0000
  S   S2        1.0  0.3996041408599496  0.2980095698857497  0.18035501490120961  1.0000
  S   S3        1.0  0.1003985194428267  0.7980200585613274  0.6803529206559277  1.0000
  S   S4        1.0  0.6003938829627913  0.7019895743396913  0.8196426586671706  1.0000
  N   N1        1.0  0.7686952208142159  0.3706996029894896  0.03574341357676051  1.0000
  N   N2        1.0  0.26870194208934356  0.1293050075368569  0.4642577977023237  1.0000
  N   N3        1.0  0.23130176061097532  0.6293045796495775  0.964261638060499  1.0000
  N   N4        1.0  0.73129712413094  0.8706924572173804  0.5357397991640482  1.0000
  N   N5        1.0  0.7595513095589368  0.0945433124666479  0.0717788684451506  1.0000
  N   N6        1.0  0.2595601156291494  0.4054570993816781  0.4282214362826124  1.0000
  N   N7        1.0  0.2404435870711694  0.9054541522875893  0.9282215876063447  1.0000
  N   N8        1.0  0.7404493745665732  0.5945445640505795  0.5717792115239249  1.0000
  N   N9        1.0  0.7478493547308745  0.90460685906298  0.0471728842921664  1.0000
  N   N10       1.0  0.24785920319862953  0.5953935367463998  0.4528301359289699  1.0000
  N   N11       1.0  0.252136160321335  0.0953897659556517  0.952828963000897  1.0000
  N   N12       1.0  0.7521450750093736  0.4046081266858578  0.5471733710626978  1.0000
  N   N13       1.0  0.21558136325108992  0.5733605539641928  0.1181405369566306  1.0000
  N   N14       1.0  0.7155881931440362  0.9266515981436427  0.3818715977340048  1.0000
  N   N15       1.0  0.7844104061863818  0.4266427889392759  0.8818637615333389  1.0000
  N   N16       1.0  0.2844140002688746  0.0733525844954315  0.618129165125552  1.0000
  O   O1        1.0  0.7967617746843132  0.2560017962871655  0.2591984786060166  1.0000
  O   O2        1.0  0.29676328397171403  0.2439876989983105  0.2408056163363526  1.0000
  O   O3        1.0  0.2032383339335126  0.7439973479382829  0.7407999097586496  1.0000
  O   O4        1.0  0.7032399518387393  0.7560080862847228  0.7591940482168482  1.0000
  O   O5        1.0  0.028142648890799603  0.2689194490861055  0.3324138788967588  1.0000
  O   O6        1.0  0.5281484363862035  0.2310784435554112  0.16758059240771667  1.0000
  O   O7        1.0  0.9718605869196537  0.7310847335529616  0.6675883135553633  1.0000
  O   O8        1.0  0.47185167223162244  0.7689181814632278  0.8324169661076439  1.0000
