data_image0
_chemical_formula_structural       Zn2H24C48N2Cl2O16
_chemical_formula_sum              "Zn2 H24 C48 N2 Cl2 O16"
_cell_length_a       15.247802723692624
_cell_length_b       15.246259528087654
_cell_length_c       16.383506203327205
_cell_angle_alpha    92.50956347415251
_cell_angle_beta     92.57816376920046
_cell_angle_gamma    90.15025531725352

_space_group_name_H-M_alt    "P 1"
_space_group_IT_number       1

loop_
  _space_group_symop_operation_xyz
  'x, y, z'

loop_
  _atom_site_type_symbol
  _atom_site_label
  _atom_site_symmetry_multiplicity
  _atom_site_fract_x
  _atom_site_fract_y
  _atom_site_fract_z
  _atom_site_occupancy
  Zn  Zn1       1.0  0.5057759321634521  0.5056292291662815  0.08652834999636379  1.0000
  Zn  Zn2       1.0  0.4943216752323778  0.4943731429205656  0.9134757703530524  1.0000
  H   H1        1.0  0.5779550827658113  0.5782985504697891  0.786071532712988  1.0000
  H   H2        1.0  0.581653981155199  0.5819990520244431  0.634554396882791  1.0000
  H   H3        1.0  0.38020719304375206  0.3799004347518178  0.6209031079111681  1.0000
  H   H4        1.0  0.6197356417549854  0.6201972718888696  0.3791212507676533  1.0000
  H   H5        1.0  0.4183037754051497  0.4180867294954496  0.3654340750471049  1.0000
  H   H6        1.0  0.42201583498849266  0.4218017502564209  0.21392285262459146  1.0000
  H   H7        1.0  0.4283949559339746  0.428242957402361  0.49666341615764503  1.0000
  H   H8        1.0  0.5715432144659331  0.5718454765947315  0.5033469974109223  1.0000
  H   H9        1.0  0.2249104713698529  0.4956225158074901  0.8787630867484707  1.0000
  H   H10       1.0  0.22692814517472468  0.5054096376770758  0.1374165637191638  1.0000
  H   H11       1.0  0.7752163983818933  0.5039453193913986  0.12121824689367598  1.0000
  H   H12       1.0  0.7732171380056485  0.4942199818712112  0.8625671239854568  1.0000
  H   H13       1.0  0.4948237878647603  0.7733230912637764  0.8624774478982217  1.0000
  H   H14       1.0  0.5042218429146033  0.7748553254203755  0.12112001662843137  1.0000
  H   H15       1.0  0.5067154724713347  0.226559741223916  0.1375883398059656  1.0000
  H   H16       1.0  0.49733842094381947  0.22508729815039163  0.8789408252048289  1.0000
  H   H17       1.0  0.848579136435589  0.4849301553138757  0.7791054850869087  1.0000
  H   H18       1.0  0.14874174794900338  0.4880573975558561  0.7899158424207187  1.0000
  H   H19       1.0  0.8513593773959159  0.5111742401683017  0.2100619388885292  1.0000
  H   H20       1.0  0.151533465695131  0.5144166673816741  0.2209300628193915  1.0000
  H   H21       1.0  0.4905237361349392  0.14908767868664086  0.7900502772893956  1.0000
  H   H22       1.0  0.4869394621250435  0.8489120843820714  0.778966672470325  1.0000
  H   H23       1.0  0.516033991895263  0.15103533952522238  0.22095729122697344  1.0000
  H   H24       1.0  0.5124748413215556  0.8508777235088586  0.2100486440565489  1.0000
  C   C1        1.0  0.6704938935135872  0.4990043331875569  0.9889505395727338  1.0000
  C   C2        1.0  0.49878550843729386  0.6703939622205651  0.9888256462719552  1.0000
  C   C3        1.0  0.3296329335030991  0.5009026963193789  0.010994417893527996  1.0000
  C   C4        1.0  0.5018420884147403  0.32957267786139244  0.011242961416300492  1.0000
  C   C5        1.0  0.535565185226595  0.5357994312033582  0.7461499269671845  1.0000
  C   C6        1.0  0.5368819374132485  0.5371198144672034  0.661851908575066  1.0000
  C   C7        1.0  0.4804285826345165  0.4804777670089848  0.6134134939658222  1.0000
  C   C8        1.0  0.4253531440488345  0.42521506471216947  0.6544974723636727  1.0000
  C   C9        1.0  0.42841807797374537  0.42829167031798937  0.7397615500494651  1.0000
  C   C10       1.0  0.47582672403962784  0.47583030911440005  0.5243323180318596  1.0000
  C   C11       1.0  0.5241134122199327  0.5242568169064937  0.4756775113855695  1.0000
  C   C12       1.0  0.574604751361278  0.5748754466738077  0.34551986643928956  1.0000
  C   C13       1.0  0.5195246680000167  0.5196126773413354  0.38659329042672397  1.0000
  C   C14       1.0  0.46307391457649066  0.46297324084843433  0.3381495765320039  1.0000
  C   C15       1.0  0.4644076918272119  0.4642929934546842  0.2538430223948751  1.0000
  C   C16       1.0  0.5715614738468632  0.57179498340642  0.2602552444206196  1.0000
  C   C17       1.0  0.185121030621815  0.4973086495522877  0.9325907558708263  1.0000
  C   C18       1.0  0.09307444526604769  0.49658356875148957  0.9276550233187775  1.0000
  C   C19       1.0  0.04430546069131219  0.4924927226978609  0.8505348994605199  1.0000
  C   C20       1.0  0.1863322416968529  0.5033239606559406  0.0807072728073521  1.0000
  C   C21       1.0  0.09421195792886289  0.5033999382455291  0.07912475276108209  1.0000
  C   C22       1.0  0.04641028655885291  0.5072307939833038  0.15272644430863377  1.0000
  C   C23       1.0  0.8150064900734932  0.5021712569476975  0.06739652914854588  1.0000
  C   C24       1.0  0.9070550241878195  0.5027500008597698  0.0723397795152891  1.0000
  C   C25       1.0  0.9558128974347254  0.5068093545334661  0.14947236593948787  1.0000
  C   C26       1.0  0.8138111008120035  0.4962065986971353  0.9192904049432186  1.0000
  C   C27       1.0  0.9059228271877656  0.4959803028023728  0.9208798997175052  1.0000
  C   C28       1.0  0.9537219060390072  0.4921055065170634  0.8472887042730405  1.0000
  C   C29       1.0  0.2312845072684624  0.5005337952290246  0.0082514284314854  1.0000
  C   C30       1.0  0.0464505307484373  0.49980053869346347  0.001692066881041396  1.0000
  C   C31       1.0  0.7688377945135159  0.4990937594175691  0.9917307049187016  1.0000
  C   C32       1.0  0.9536841984496007  0.4994950022357969  0.9983076419636345  1.0000
  C   C33       1.0  0.49703312186297666  0.8138285224995201  0.9192085451793162  1.0000
  C   C34       1.0  0.4973288557139099  0.9059545305141443  0.9208375649414645  1.0000
  C   C35       1.0  0.4938618374143147  0.953920145077191  0.8472744753333217  1.0000
  C   C36       1.0  0.5027713734902833  0.8147491181296473  0.0673218042805459  1.0000
  C   C37       1.0  0.5038148815063154  0.9067991228308255  0.07230896464727718  1.0000
  C   C38       1.0  0.5080119965072782  0.9554246990613037  0.14945766448801828  1.0000
  C   C39       1.0  0.5047849973777973  0.1860939964799471  0.0808326111737045  1.0000
  C   C40       1.0  0.5049302404310012  0.0939735146829008  0.07918016749693628  1.0000
  C   C41       1.0  0.5086388221516316  0.046011469973763  0.152746409678528  1.0000
  C   C42       1.0  0.49901793676136214  0.1851812342622381  0.9327338109855673  1.0000
  C   C43       1.0  0.4983688610451082  0.093136633858272  0.9277355027361478  1.0000
  C   C44       1.0  0.49440674376151617  0.04451328801285111  0.8505896582546484  1.0000
  C   C45       1.0  0.49949942806329517  0.7687347116819508  0.9916276833785175  1.0000
  C   C46       1.0  0.5008805447007703  0.9535806849018512  0.998299956507118  1.0000
  C   C47       1.0  0.501976141158778  0.23121150162698703  0.008428259709482702  1.0000
  C   C48       1.0  0.5014265007361588  0.0463456092993653  0.0017250163973656996  1.0000
  N   N1        1.0  0.48210603429414073  0.48216148488490507  0.7853653931417383  1.0000
  N   N2        1.0  0.517889882432968  0.5179179703031094  0.21464259945812356  1.0000
  Cl  Cl1       1.0  0.3602297361308118  0.3598365098020436  0.7885923453697854  1.0000
  Cl  Cl2       1.0  0.639768316893935  0.6402562408287764  0.2114497871587631  1.0000
  O   O1        1.0  0.6344714926885971  0.498735402023989  0.057674453437989805  1.0000
  O   O2        1.0  0.6303941055181851  0.4992601879932508  0.9190329424037528  1.0000
  O   O3        1.0  0.4990506541297819  0.6303650354192669  0.9189071386029822  1.0000
  O   O4        1.0  0.4980301524422828  0.6342748464572594  0.057509154004705486  1.0000
  O   O5        1.0  0.36562529342302946  0.5014912129809729  0.9422768324218963  1.0000
  O   O6        1.0  0.3697700314978717  0.5005530521259159  0.08089777269714919  1.0000
  O   O7        1.0  0.5014614929404004  0.3695717045812472  0.08117920436028209  1.0000
  O   O8        1.0  0.5020283692586105  0.3657322597201684  0.942557143379993  1.0000
  O   O9        1.0  0.911502053151338  0.4879200906243355  0.7716534133740963  1.0000
  O   O10       1.0  0.0855777938131439  0.4886546852726069  0.7779668726475605  1.0000
  O   O11       1.0  0.9145246916024732  0.5106354026186039  0.22201615836792138  1.0000
  O   O12       1.0  0.08860187789141351  0.511431156333103  0.22835267112370863  1.0000
  O   O13       1.0  0.49073008788583644  0.0859384758659232  0.7780541679821694  1.0000
  O   O14       1.0  0.4898488739985396  0.9118708745843945  0.7716078098429193  1.0000
  O   O15       1.0  0.5128965131800172  0.08810685765831748  0.22838800100573306  1.0000
  O   O16       1.0  0.5117083659086319  0.9140225745117403  0.22199596715743297  1.0000
