data_image0
_chemical_formula_structural       Al2H18C42Br6N6O12
_chemical_formula_sum              "Al2 H18 C42 Br6 N6 O12"
_cell_length_a       4.0123528972239235
_cell_length_b       27.941186794543366
_cell_length_c       27.94141843948266
_cell_angle_alpha    120.00044240020426
_cell_angle_beta     90.00000811042635
_cell_angle_gamma    89.99894715872337

_space_group_name_H-M_alt    "P 1"
_space_group_IT_number       1

loop_
  _space_group_symop_operation_xyz
  'x, y, z'

loop_
  _atom_site_type_symbol
  _atom_site_label
  _atom_site_symmetry_multiplicity
  _atom_site_fract_x
  _atom_site_fract_y
  _atom_site_fract_z
  _atom_site_occupancy
  Al  Al1       1.0  0.012045998018002999  0.49999788293471437  0.5000000892667841  1.0000
  Al  Al2       1.0  0.012045168662687901  0.16666715244497257  0.8333345978587445  1.0000
  H   H1        1.0  0.4762532798709671  0.17769203756655838  0.6891060829753428  1.0000
  H   H2        1.0  0.48949883960452933  0.2321270546094355  0.6397024714584276  1.0000
  H   H3        1.0  0.5035284332738855  0.3828125286859958  0.7963954732248906  1.0000
  H   H4        1.0  0.5035470575248979  0.2838502606968945  0.5369403142640577  1.0000
  H   H5        1.0  0.4895382398850003  0.43453901979060566  0.6936336835037834  1.0000
  H   H6        1.0  0.47628563202250257  0.48897214250522586  0.6442277410454551  1.0000
  H   H7        1.0  0.4762939401122778  0.011411915516873629  0.8223070185539781  1.0000
  H   H8        1.0  0.4895353829774222  0.9075716686800848  0.7678745402435181  1.0000
  H   H9        1.0  0.5035565904098078  0.9135791453759696  0.6171876326807676  1.0000
  H   H10       1.0  0.5034797176791912  0.7530830696407947  0.7161457186038118  1.0000
  H   H11       1.0  0.4895098674394164  0.7590958125537598  0.5654636392889641  1.0000
  H   H12       1.0  0.47628235621289855  0.6552540688025134  0.511025716936217  1.0000
  H   H13       1.0  0.476239965322975  0.3108974185969374  0.9885914211875643  1.0000
  H   H14       1.0  0.48949771733496306  0.36030151490726336  0.092431521809054  1.0000
  H   H15       1.0  0.5035369329931997  0.20360584869049347  0.08641944323283464  1.0000
  H   H16       1.0  0.503527889382859  0.4630627312854756  0.24692084069249623  1.0000
  H   H17       1.0  0.48947635555642677  0.3063672952051633  0.24090359513568418  1.0000
  H   H18       1.0  0.47625408509933453  0.3557669681843764  0.344742196244752  1.0000
  C   C1        1.0  0.5085325430595944  0.4632038173836223  0.415596942475588  1.0000
  C   C2        1.0  0.5085383058318342  0.452386232916176  0.5367919879953647  1.0000
  C   C3        1.0  0.5085248658141309  0.5844019670431352  0.5476097795216929  1.0000
  C   C4        1.0  0.5085238438773416  0.2142772695955486  0.7965416286235791  1.0000
  C   C5        1.0  0.5085422683984291  0.08226313314201414  0.7857229552223473  1.0000
  C   C6        1.0  0.5085221297254421  0.2034599323069413  0.9177385743435024  1.0000
  C   C7        1.0  0.499459557906519  0.2494237426761146  0.7701956240340734  1.0000
  C   C8        1.0  0.4870071885005133  0.22274389685966156  0.7120938946344422  1.0000
  C   C9        1.0  0.4932584506449799  0.25249800950656714  0.6846257607699185  1.0000
  C   C10       1.0  0.5027529177865091  0.31055819590510214  0.7155428941105412  1.0000
  C   C11       1.0  0.5046403772983937  0.3378065226378411  0.7734312091256469  1.0000
  C   C12       1.0  0.505890992573967  0.30734929724957993  0.8004528735434986  1.0000
  C   C13       1.0  0.5046532633151557  0.32885692328688526  0.559906063372125  1.0000
  C   C14       1.0  0.5027723605296898  0.35610280671095035  0.6177911052544542  1.0000
  C   C15       1.0  0.493277969248993  0.41416732113244586  0.6487125498495769  1.0000
  C   C16       1.0  0.48702534622259464  0.4439209613523261  0.62124062647608  1.0000
  C   C17       1.0  0.4994785628156961  0.41724060327869944  0.5631400598133209  1.0000
  C   C18       1.0  0.5058974436158579  0.35931312598060583  0.532882551950685  1.0000
  C   C19       1.0  0.4995041099372202  0.02076880854760075  0.7505774225057279  1.0000
  C   C20       1.0  0.48704033627192445  0.9893483236488905  0.7772559110977892  1.0000
  C   C21       1.0  0.4932772342095432  0.9321240629192998  0.7475020124728073  1.0000
  C   C22       1.0  0.5027820858236608  0.9049805720548111  0.6894408338757286  1.0000
  C   C23       1.0  0.5046867145237997  0.9356207720276402  0.6621946740994885  1.0000
  C   C24       1.0  0.505929202592405  0.9931010816549205  0.6926509447041836  1.0000
  C   C25       1.0  0.5046051280054868  0.7310408745104056  0.6711385239557823  1.0000
  C   C26       1.0  0.5027289326746072  0.7616820588958647  0.6438921054808161  1.0000
  C   C27       1.0  0.493254895166018  0.7345415198162328  0.5858330354019045  1.0000
  C   C28       1.0  0.4870203077639772  0.6773185612548007  0.5560800146831112  1.0000
  C   C29       1.0  0.4994639184874999  0.6458945190306907  0.5827564164825104  1.0000
  C   C30       1.0  0.5058674045816574  0.6735618002809077  0.6406810114068618  1.0000
  C   C31       1.0  0.4994634538199775  0.22980730740933802  0.9792320908337898  1.0000
  C   C32       1.0  0.48701747463340445  0.28790949201607674  0.010654409911637661  1.0000
  C   C33       1.0  0.4932614656272918  0.31537718307762935  0.06787813448491416  1.0000
  C   C34       1.0  0.5027491726874801  0.2844582902606306  0.09502000759066218  1.0000
  C   C35       1.0  0.5046445202583101  0.22657195633614444  0.06437922362135845  1.0000
  C   C36       1.0  0.5058898717422552  0.19954861838231616  0.0068993851527423605  1.0000
  C   C37       1.0  0.5046409443678002  0.4400951881636673  0.2689596267939222  1.0000
  C   C38       1.0  0.5027454987081583  0.38220963203832536  0.23831879076207935  1.0000
  C   C39       1.0  0.49325182465195644  0.35128879119027095  0.26545621956569926  1.0000
  C   C40       1.0  0.4870068841208592  0.37875876223986893  0.3226805600723138  1.0000
  C   C41       1.0  0.49947965143536527  0.43685820812643084  0.3541060023644461  1.0000
  C   C42       1.0  0.5059078345546837  0.46711795718907473  0.32643931180989927  1.0000
  Br  Br1       1.0  0.493260019768634  0.3467734656012738  0.8789693019752247  1.0000
  Br  Br2       1.0  0.49323901579483487  0.31988843740375467  0.4543659942535853  1.0000
  Br  Br3       1.0  0.4932725515072035  0.03219329058565987  0.6532267246163457  1.0000
  Br  Br4       1.0  0.49321402252908086  0.6344687380025463  0.6801041513534755  1.0000
  Br  Br5       1.0  0.4931997840817531  0.12103207633690949  0.9678051753920724  1.0000
  Br  Br6       1.0  0.49325688201170687  0.545634756223791  0.36553091775463986  1.0000
  N   N1        1.0  0.504781869552339  0.34580438130302577  0.6928407058152926  1.0000
  N   N2        1.0  0.5048058627636322  0.3208602485267845  0.6404960978110877  1.0000
  N   N3        1.0  0.5047995569436167  0.8470332649882907  0.654196966043976  1.0000
  N   N4        1.0  0.5047639464219243  0.8196317534079541  0.679140017347727  1.0000
  N   N5        1.0  0.5047989232561463  0.30716247105284833  0.15296871494272316  1.0000
  N   N6        1.0  0.5047631869871269  0.3595052523203608  0.18036740852817693  1.0000
  O   O1        1.0  0.7491832890949509  0.5591253253595241  0.5548518814678685  1.0000
  O   O2        1.0  0.7491797971176483  0.49572096012394706  0.44087219649217235  1.0000
  O   O3        1.0  0.7491780989736726  0.4451458987324415  0.5042754355222809  1.0000
  O   O4        1.0  0.2779483579717876  0.561925581640722  0.5117735324908138  1.0000
  O   O5        1.0  0.27794314037301854  0.48822252788095716  0.5501549486915918  1.0000
  O   O6        1.0  0.2779529992835776  0.4498433153265254  0.4380719191279282  1.0000
  O   O7        1.0  0.7491809944853004  0.17094205713934232  0.8924613592942379  1.0000
  O   O8        1.0  0.7491802001683397  0.22151958327594196  0.8290585187068158  1.0000
  O   O9        1.0  0.7491924561602232  0.10754030788385885  0.7784826372680909  1.0000
  O   O10       1.0  0.27793834923376437  0.21682088433917088  0.8952636410060889  1.0000
  O   O11       1.0  0.2779504675790747  0.10473663672900109  0.8215575668208712  1.0000
  O   O12       1.0  0.2779531928176907  0.17844063862129622  0.7831816445756699  1.0000
