data_image0
_chemical_formula_structural       Zn2H30C40N4Cl2O12
_chemical_formula_sum              "Zn2 H30 C40 N4 Cl2 O12"
_cell_length_a       7.950220536209336
_cell_length_b       9.461503708754991
_cell_length_c       15.475998863860285
_cell_angle_alpha    75.01793202357216
_cell_angle_beta     81.1720915344578
_cell_angle_gamma    60.851024155429556

_space_group_name_H-M_alt    "P 1"
_space_group_IT_number       1

loop_
  _space_group_symop_operation_xyz
  'x, y, z'

loop_
  _atom_site_type_symbol
  _atom_site_label
  _atom_site_symmetry_multiplicity
  _atom_site_fract_x
  _atom_site_fract_y
  _atom_site_fract_z
  _atom_site_occupancy
  Zn  Zn1       1.0  0.080139894338231  0.2863179689944886  0.3063201656915666  1.0000
  Zn  Zn2       1.0  0.9198759757128837  0.713667499296143  0.6936834596162813  1.0000
  H   H1        1.0  0.5182050233045172  0.8043377520551614  0.8714385065112182  1.0000
  H   H2        1.0  0.48179177181504684  0.1956689788099837  0.12856053878567048  1.0000
  H   H3        1.0  0.8791938285664286  0.12338879956114111  0.4350299600863821  1.0000
  H   H4        1.0  0.12079379157614059  0.8766134677506869  0.5649690927835564  1.0000
  H   H5        1.0  0.16280940006572558  0.11104828988487007  0.08093595103142091  1.0000
  H   H6        1.0  0.8371882307501083  0.8889495901184078  0.9190607093550227  1.0000
  H   H7        1.0  0.9764246754165528  0.7877700940861911  0.2679220490050369  1.0000
  H   H8        1.0  0.023580362127624703  0.2122310824760376  0.7320865683225365  1.0000
  H   H9        1.0  0.28043036623775225  0.6470914551251851  0.025014138832645524  1.0000
  H   H10       1.0  0.719547155566758  0.3529070344790171  0.9749913316840023  1.0000
  H   H11       1.0  0.5423986858708431  0.18488345802185077  0.6876604212077524  1.0000
  H   H12       1.0  0.45760342858584113  0.8151229318878634  0.31233773346770033  1.0000
  H   H13       1.0  0.6905674516489739  0.15473129569443242  0.5777172205241711  1.0000
  H   H14       1.0  0.3094095390106517  0.8452823572301966  0.422280444058579  1.0000
  H   H15       1.0  0.3630217538430287  0.22439475460337385  0.83110398911456  1.0000
  H   H16       1.0  0.636989309330609  0.7756088257252856  0.16889479612520827  1.0000
  H   H17       1.0  0.6990128533336485  0.621512656877762  0.5475232966661281  1.0000
  H   H18       1.0  0.3009994888650382  0.37848591515584223  0.4524749969185393  1.0000
  H   H19       1.0  0.5482221138494695  0.6511766688680253  0.6676014315685991  1.0000
  H   H20       1.0  0.45176666977681623  0.34883465583365586  0.3323907877161005  1.0000
  H   H21       1.0  0.8905469430286886  0.5657498045678293  0.40635589748490025  1.0000
  H   H22       1.0  0.10947384461859845  0.4342388905040551  0.5936455878235379  1.0000
  H   H23       1.0  0.3706483755807497  0.6671859784489412  0.8129100049266356  1.0000
  H   H24       1.0  0.6293487888832414  0.33282047807793447  0.18708647634078804  1.0000
  H   H25       1.0  0.12697243402170938  0.5867311314123356  0.9030051963241095  1.0000
  H   H26       1.0  0.8730329588221437  0.4132688787203733  0.09699194527438242  1.0000
  H   H27       1.0  0.34791987349107256  0.4496707540934323  0.9623343901267488  1.0000
  H   H28       1.0  0.6520954931403651  0.5503348177199642  0.03766185849878675  1.0000
  H   H29       1.0  0.2112343279756247  0.3666383385374417  0.9333352404114308  1.0000
  H   H30       1.0  0.7887823500773766  0.6333589315824849  0.0666643299664429  1.0000
  C   C1        1.0  0.22623793041059784  0.8861707030005873  0.0416489535558355  1.0000
  C   C2        1.0  0.7737494589827776  0.113830946767699  0.9583560503694244  1.0000
  C   C3        1.0  0.5647634292726879  0.41440681741867275  0.6625653217343555  1.0000
  C   C4        1.0  0.43522964413093507  0.5856024506566582  0.3374328433841498  1.0000
  C   C5        1.0  0.12256488277099467  0.7023102455716311  0.14763474036588786  1.0000
  C   C6        1.0  0.8774264914840371  0.2976861911316036  0.8523690060898802  1.0000
  C   C7        1.0  0.837876368248075  0.22986481623093621  0.4642088696621158  1.0000
  C   C8        1.0  0.1621198912066077  0.7701381406519587  0.5357889233867965  1.0000
  C   C9        1.0  0.1475366571511002  0.9986019312252523  0.09850682062401722  1.0000
  C   C10       1.0  0.8524614355274167  0.001394027845258019  0.9014953317994241  1.0000
  C   C11       1.0  0.05857671809079785  0.962037741070894  0.18009156400532333  1.0000
  C   C12       1.0  0.9414101171037927  0.03796589821473619  0.8199085888903141  1.0000
  C   C13       1.0  0.04354388085571516  0.8155659344484858  0.2035742746748852  1.0000
  C   C14       1.0  0.9564605470392493  0.1844273512264039  0.796428633119902  1.0000
  C   C15       1.0  0.21440312192584807  0.7380407032683535  0.06686200300359964  1.0000
  C   C16       1.0  0.7855866223114848  0.26195683057854774  0.9331397008445492  1.0000
  C   C17       1.0  0.6777117416954254  0.39157727485473964  0.5774428769081156  1.0000
  C   C18       1.0  0.3222848224927973  0.6084304164767927  0.42255342237027804  1.0000
  C   C19       1.0  0.12845022401969428  0.5354623607096158  0.17786267586448898  1.0000
  C   C20       1.0  0.8715478225818385  0.4645328436482145  0.8221441455995376  1.0000
  C   C21       1.0  0.333116740007945  0.9217852781077125  0.9586372372144468  1.0000
  C   C22       1.0  0.6668707879498329  0.0781898868852622  0.04137239450463429  1.0000
  C   C23       1.0  0.5080467560387446  0.2958246104696869  0.7106939505726189  1.0000
  C   C24       1.0  0.49195603716721337  0.7041780059496289  0.2893035304587031  1.0000
  C   C25       1.0  0.7300980681470931  0.2510088688819749  0.5436281060449915  1.0000
  C   C26       1.0  0.2698921608246746  0.7490014958451782  0.4563674378620561  1.0000
  C   C27       1.0  0.40625021534694383  0.3150968121761508  0.7911480336316785  1.0000
  C   C28       1.0  0.5937582204635843  0.6849044342367706  0.20885066178932726  1.0000
  C   C29       1.0  0.7361058502356383  0.5077643362795072  0.5267594233854851  1.0000
  C   C30       1.0  0.2638994641347167  0.4922382125389433  0.47323857384616735  1.0000
  C   C31       1.0  0.0020925280948347045  0.0656201468193345  0.2488986197375596  1.0000
  C   C32       1.0  0.9978950182455436  0.9343764255774828  0.751104672921386  1.0000
  C   C33       1.0  0.5113478030210885  0.5522547973036109  0.69949482398237  1.0000
  C   C34       1.0  0.48865088059058337  0.447756394163747  0.3005007421183876  1.0000
  C   C35       1.0  0.8437930426859879  0.4780390785512338  0.4476004131599609  1.0000
  C   C36       1.0  0.15621831602989283  0.5219585325241312  0.552400047839349  1.0000
  C   C37       1.0  0.41095862648071363  0.5653371049033851  0.7806808787326459  1.0000
  C   C38       1.0  0.5890376468365801  0.4346683220806824  0.21931712894205901  1.0000
  C   C39       1.0  0.25416573140847737  0.4643577631583965  0.9120794191197988  1.0000
  C   C40       1.0  0.7458460105144339  0.5356420436798643  0.08791869247583863  1.0000
  N   N1        1.0  0.8959615221166854  0.3406079170914892  0.4170052765844545  1.0000
  N   N2        1.0  0.10404250403733069  0.6593889363200915  0.5829963818323591  1.0000
  N   N3        1.0  0.360416646249817  0.4475808246930129  0.8254849875478244  1.0000
  N   N4        1.0  0.6395927591809142  0.5524189125769751  0.1745113258327464  1.0000
  Cl  Cl1       1.0  0.3817301080072965  0.10544978234178609  0.3509190646214718  1.0000
  Cl  Cl2       1.0  0.6182862975265453  0.8945410379410246  0.6490771158605355  1.0000
  O   O1        1.0  0.03704714862784187  0.5154216327116856  0.2533867806595254  1.0000
  O   O2        1.0  0.9629501914992107  0.48457240493420517  0.7466202851970536  1.0000
  O   O3        1.0  0.4207177883979013  0.7936232880071827  0.9164804112338771  1.0000
  O   O4        1.0  0.5792972043691124  0.20636362084182025  0.08352495510704469  1.0000
  O   O5        1.0  0.34589422500027206  0.05027612158574612  0.9322780116574734  1.0000
  O   O6        1.0  0.6540903844208399  0.9497487869508843  0.06771336295560818  1.0000
  O   O7        1.0  0.2219308541322675  0.4274160970003392  0.13240763089343233  1.0000
  O   O8        1.0  0.7780940524827429  0.5725731487155058  0.8676012968893332  1.0000
  O   O9        1.0  0.9625779199242358  0.010705572861908815  0.32723477526396755  1.0000
  O   O10       1.0  0.03740214139644147  0.989288663651763  0.672766113160833  1.0000
  O   O11       1.0  0.008451476752036143  0.20504688052407966  0.22039139392700952  1.0000
  O   O12       1.0  0.9915311473208561  0.794954698692237  0.7796106545754995  1.0000
