data_image0
_chemical_formula_structural       Fe4P4H12C4O28
_chemical_formula_sum              "Fe4 P4 H12 C4 O28"
_cell_length_a       6.497253387149291
_cell_length_b       8.426525308452373
_cell_length_c       11.116312386493277
_cell_angle_alpha    104.93084183794215
_cell_angle_beta     89.99928081174352
_cell_angle_gamma    89.99987499746983

_space_group_name_H-M_alt    "P 1"
_space_group_IT_number       1

loop_
  _space_group_symop_operation_xyz
  'x, y, z'

loop_
  _atom_site_type_symbol
  _atom_site_label
  _atom_site_symmetry_multiplicity
  _atom_site_fract_x
  _atom_site_fract_y
  _atom_site_fract_z
  _atom_site_occupancy
  Fe  Fe1       1.0  0.8060048696265908  0.2483217041755026  0.4218045017927068  1.0000
  Fe  Fe2       1.0  0.30598504571163687  0.2516769344388051  0.07819927801735099  1.0000
  Fe  Fe3       1.0  0.1939931451586076  0.7516824540784057  0.5781872321835522  1.0000
  Fe  Fe4       1.0  0.6939729518759917  0.748330478516138  0.9218183117386402  1.0000
  P   P1        1.0  0.5538968073905792  0.9916385350154614  0.19672789127006496  1.0000
  P   P2        1.0  0.05386648808396188  0.508369817562034  0.3032709314798509  1.0000
  P   P3        1.0  0.446125833196639  0.008359467336362095  0.8032634836213219  1.0000
  P   P4        1.0  0.9461038223805855  0.49165979323774417  0.6967457989469564  1.0000
  H   H1        1.0  0.36601014818675975  0.8710915316805482  0.31173114791856443  1.0000
  H   H2        1.0  0.8660015427336772  0.6288996739483962  0.18824665173409016  1.0000
  H   H3        1.0  0.6340017187222813  0.12891033914885236  0.6882502221772668  1.0000
  H   H4        1.0  0.13398415916367404  0.3710995565886037  0.8117449744056983  1.0000
  H   H5        1.0  0.41051838050576334  0.369015964058164  0.49115714210644507  1.0000
  H   H6        1.0  0.9106075992679548  0.1306890134473733  0.008838030092029193  1.0000
  H   H7        1.0  0.589414991734209  0.6307686411196658  0.5088454801473148  1.0000
  H   H8        1.0  0.08950431021489177  0.8689441206958647  0.9911579120247893  1.0000
  H   H9        1.0  0.4246922310831493  0.26854285947676715  0.3471274500410146  1.0000
  H   H10       1.0  0.9246056530894575  0.2314994572859632  0.15281154356216578  1.0000
  H   H11       1.0  0.5753781222036735  0.7314937816648737  0.6528385378160877  1.0000
  H   H12       1.0  0.07528308539583148  0.7685464562025857  0.8471167562202453  1.0000
  C   C1        1.0  0.9041918692894837  0.9851003837995408  0.536732913316193  1.0000
  C   C2        1.0  0.40419957308162663  0.5149372292428184  0.963284276372562  1.0000
  C   C3        1.0  0.09582153644520729  0.014918327463348601  0.4632725919279039  1.0000
  C   C4        1.0  0.5958215279614834  0.4851193689433231  0.03673977105890459  1.0000
  O   O1        1.0  0.43090776468330444  0.8448513014572114  0.22705542654351518  1.0000
  O   O2        1.0  0.9309172410482772  0.6551678351442901  0.2729285212620169  1.0000
  O   O3        1.0  0.5690979457627705  0.15514931059439618  0.7729274855006167  1.0000
  O   O4        1.0  0.0690946256821192  0.3448596876663003  0.7270661905239777  1.0000
  O   O5        1.0  0.647597903024369  0.9255442569503102  0.06752702769696126  1.0000
  O   O6        1.0  0.14756457893908956  0.5744844328528272  0.43248158338656134  1.0000
  O   O7        1.0  0.35244936312847835  0.07447562094974101  0.9324823145556778  1.0000
  O   O8        1.0  0.8524057316102115  0.4255379014246827  0.567528261375287  1.0000
  O   O9        1.0  0.4011625453440785  0.1346747681706049  0.19889597179838597  1.0000
  O   O10       1.0  0.9011293215822744  0.36535046422942935  0.3011116680415213  1.0000
  O   O11       1.0  0.5988801033901224  0.8653462150710991  0.8011207936637347  1.0000
  O   O12       1.0  0.09884252802436319  0.6346903068878544  0.6989010466935993  1.0000
  O   O13       1.0  0.7217801539861242  0.053194928009375496  0.2943810836447511  1.0000
  O   O14       1.0  0.2217847459992086  0.4468037621930065  0.20564309881440576  1.0000
  O   O15       1.0  0.27821939970324644  0.9468064364270816  0.7056298713780434  1.0000
  O   O16       1.0  0.7782117293347991  0.5531899881140346  0.7943806938073692  1.0000
  O   O17       1.0  0.7600473256804106  0.0896290479728279  0.5491987526731775  1.0000
  O   O18       1.0  0.26003584649001243  0.4103874496551682  0.9508076917261689  1.0000
  O   O19       1.0  0.23995684530851236  0.9103883124427624  0.4508136736002442  1.0000
  O   O20       1.0  0.7399360033862548  0.5896327506873149  0.04918282409059321  1.0000
  O   O21       1.0  0.9054274681716163  0.8596888127772644  0.5790109543101707  1.0000
  O   O22       1.0  0.4054188575749578  0.6403473976853178  0.9210158360023684  1.0000
  O   O23       1.0  0.0945920938910234  0.1403556425292081  0.4210025135306593  1.0000
  O   O24       1.0  0.5945776176646047  0.35967337081765277  0.07901348080606849  1.0000
  O   O25       1.0  0.503738587792398  0.3306585509173842  0.4211790212880189  1.0000
  O   O26       1.0  0.003732807801412699  0.16943415993109304  0.07881285857740039  1.0000
  O   O27       1.0  0.496244035823821  0.6694023301551225  0.5788108156509466  1.0000
  O   O28       1.0  0.9962698242544047  0.8306649763426818  0.9211740042248663  1.0000
