data_image0
_chemical_formula_structural       Co4H28C36N16O8
_chemical_formula_sum              "Co4 H28 C36 N16 O8"
_cell_length_a       8.846724651384083
_cell_length_b       9.944054284805596
_cell_length_c       15.987630026128542
_cell_angle_alpha    100.09789655725719
_cell_angle_beta     90.00102678379425
_cell_angle_gamma    90.00005724626246

_space_group_name_H-M_alt    "P 1"
_space_group_IT_number       1

loop_
  _space_group_symop_operation_xyz
  'x, y, z'

loop_
  _atom_site_type_symbol
  _atom_site_label
  _atom_site_symmetry_multiplicity
  _atom_site_fract_x
  _atom_site_fract_y
  _atom_site_fract_z
  _atom_site_occupancy
  Co  Co1       1.0  0.07026374779047731  0.8652933390198074  0.9111375736829004  1.0000
  Co  Co2       1.0  0.570277347152036  0.6346997416177517  0.08885995385896449  1.0000
  Co  Co3       1.0  0.9297490003288972  0.13471118529015064  0.08886293979912098  1.0000
  Co  Co4       1.0  0.42973200989030164  0.3652924938309923  0.9111416628310636  1.0000
  H   H1        1.0  0.3578923635133791  0.8681388154729673  0.13857879348983457  1.0000
  H   H2        1.0  0.857910220824003  0.6318543951055063  0.8614116350742762  1.0000
  H   H3        1.0  0.6420819522909086  0.1318452485721551  0.8614218929101509  1.0000
  H   H4        1.0  0.14210591825899144  0.3681492033227869  0.13858126700502987  1.0000
  H   H5        1.0  0.23219068797833847  0.9494686080970144  0.07723946484685482  1.0000
  H   H6        1.0  0.732195684510188  0.5505015325077522  0.9227589573831023  1.0000
  H   H7        1.0  0.7677983225500215  0.0504959933130138  0.9227633848017687  1.0000
  H   H8        1.0  0.2678057598789678  0.44948261119395727  0.07723548319459177  1.0000
  H   H9        1.0  0.9574091288797534  0.5368665250671326  0.6489411960031006  1.0000
  H   H10       1.0  0.45739931021986274  0.963138219617022  0.35105592519807516  1.0000
  H   H11       1.0  0.04259231554800641  0.46312884626794926  0.35105514806765103  1.0000
  H   H12       1.0  0.542564832348667  0.03685401575123139  0.6489456912553065  1.0000
  H   H13       1.0  0.1384334179822488  0.6270150644658089  0.4133213441431565  1.0000
  H   H14       1.0  0.6384349672499922  0.8729916089160098  0.5866727869698067  1.0000
  H   H15       1.0  0.8615680263369044  0.3730080284408999  0.5866668963018  1.0000
  H   H16       1.0  0.36156873791284033  0.12701603535661832  0.4133237030798824  1.0000
  H   H17       1.0  0.25273022876375967  0.8351634954902846  0.49177600848844344  1.0000
  H   H18       1.0  0.7527527094520677  0.6648537034799274  0.5082279769476797  1.0000
  H   H19       1.0  0.7472836498497913  0.16484604038000583  0.5082325814732797  1.0000
  H   H20       1.0  0.2472611689820425  0.33515188205385027  0.49176952982145383  1.0000
  H   H21       1.0  0.21757061534907512  0.8995398580605067  0.649057108774059  1.0000
  H   H22       1.0  0.717575556999023  0.6004741832981891  0.350943661354755  1.0000
  H   H23       1.0  0.7824161345089493  0.10047689933254839  0.3509466735211361  1.0000
  H   H24       1.0  0.2824145838583476  0.399528314057875  0.6490553702894245  1.0000
  H   H25       1.0  0.2024561169603132  0.5634861239041838  0.850540058012804  1.0000
  H   H26       1.0  0.7024585277737856  0.9364992559861773  0.1494579231121306  1.0000
  H   H27       1.0  0.7975622829055454  0.4365133331317066  0.14945675120001303  1.0000
  H   H28       1.0  0.29754291680310274  0.0634959959364707  0.8505477899050504  1.0000
  C   C1        1.0  0.0617008753319581  0.7529648891053072  0.7504466061527069  1.0000
  C   C2        1.0  0.5617333233732255  0.7470548293920345  0.24954511035093666  1.0000
  C   C3        1.0  0.9383084816677963  0.2470458035086907  0.249551481909414  1.0000
  C   C4        1.0  0.4382805550258481  0.25294873718891614  0.7504502901022503  1.0000
  C   C5        1.0  0.084415111197444  0.7200048822011169  0.6568028068308605  1.0000
  C   C6        1.0  0.5844336353540598  0.7800149250965162  0.3431885227689761  1.0000
  C   C7        1.0  0.9155976369323471  0.2800037277794587  0.3431981717044863  1.0000
  C   C8        1.0  0.41556893942800605  0.22000092235866478  0.6568063989957266  1.0000
  C   C9        1.0  0.020387222391569502  0.6000174103547238  0.6119572977316422  1.0000
  C   C10       1.0  0.5203621377360221  0.8999826823778393  0.38803739837710066  1.0000
  C   C11       1.0  0.9795916147555417  0.40000767758208167  0.3880349227002213  1.0000
  C   C12       1.0  0.4795974834180328  0.10001464414898459  0.6119660485621237  1.0000
  C   C13       1.0  0.0359418271011478  0.5630419884172327  0.5235709974506051  1.0000
  C   C14       1.0  0.5359297857940959  0.9369632110764815  0.4764288150387798  1.0000
  C   C15       1.0  0.9640901371094586  0.4369584900604551  0.4764259280965319  1.0000
  C   C16       1.0  0.46407618020699454  0.06304638846636121  0.5235747781101096  1.0000
  C   C17       1.0  0.1216825636093049  0.6508534964576145  0.4817956422763814  1.0000
  C   C18       1.0  0.6217282413564504  0.8491807593318871  0.5181964560633432  1.0000
  C   C19       1.0  0.8783267933390988  0.34916440180577973  0.5181988874540479  1.0000
  C   C20       1.0  0.3783082443143613  0.15084427298172193  0.4818001368452442  1.0000
  C   C21       1.0  0.18664525318677516  0.7701159502962439  0.5261426713625069  1.0000
  C   C22       1.0  0.686641867228076  0.7299010133608449  0.4738606221814337  1.0000
  C   C23       1.0  0.8133426269968994  0.2299100476226954  0.4738584097300062  1.0000
  C   C24       1.0  0.31334036115651287  0.2701055298476049  0.5261419974567971  1.0000
  C   C25       1.0  0.1680250943798356  0.8062746032817714  0.6137648228608582  1.0000
  C   C26       1.0  0.6679939960357261  0.6937299812992707  0.3862412526430958  1.0000
  C   C27       1.0  0.8320215646933491  0.19372165421734883  0.38624225584914734  1.0000
  C   C28       1.0  0.3319938841166703  0.3062837596078083  0.6137584332894618  1.0000
  C   C29       1.0  0.24720363372581036  0.6096878673443911  0.9119874882951959  1.0000
  C   C30       1.0  0.7471983671901512  0.8902935941267598  0.08800987154277345  1.0000
  C   C31       1.0  0.7528091143367205  0.39029827940860434  0.08801030785046038  1.0000
  C   C32       1.0  0.252797425541992  0.10969554520155358  0.9119938946719797  1.0000
  C   C33       1.0  0.28955334490236595  0.7530696350799461  0.026945227412220198  1.0000
  C   C34       1.0  0.7895624942918077  0.7469272108804575  0.9730611903153558  1.0000
  C   C35       1.0  0.7104322747211357  0.24693064429450823  0.97306731280306  1.0000
  C   C36       1.0  0.21043895027088416  0.25307419343060644  0.02694334649251569  1.0000
  N   N1        1.0  0.34713052146590684  0.5501143569566905  0.9549263321168482  1.0000
  N   N2        1.0  0.8471171928050012  0.9498594003570986  0.04506239922560696  1.0000
  N   N3        1.0  0.6528878783033392  0.44986675436555157  0.045065261373878215  1.0000
  N   N4        1.0  0.15287407832754243  0.050124743326506405  0.9549320412988391  1.0000
  N   N5        1.0  0.3759299194690016  0.6411866835419034  0.030508629095173462  1.0000
  N   N6        1.0  0.8759402505761499  0.858802537410817  0.9694790248019982  1.0000
  N   N7        1.0  0.624046656912931  0.3588026149687947  0.9694826450904512  1.0000
  N   N8        1.0  0.12406232414385698  0.14119288965208907  0.030512947099673192  1.0000
  N   N9        1.0  0.2072980928600003  0.7358636723809227  0.9534635915702978  1.0000
  N   N10       1.0  0.7073014923672218  0.7641154211047763  0.04654748378552397  1.0000
  N   N11       1.0  0.7927067429669066  0.2641140482701942  0.04655326151300439  1.0000
  N   N12       1.0  0.2926943004094227  0.23587163558406843  0.9534591728847132  1.0000
  N   N13       1.0  0.2848939223111131  0.8637987108525707  0.08832380562765249  1.0000
  N   N14       1.0  0.7849077351916024  0.636179764853793  0.9116779722253056  1.0000
  N   N15       1.0  0.7150883061799505  0.13618318299805307  0.911686641829938  1.0000
  N   N16       1.0  0.2151004914434225  0.36380636596949506  0.08832107308954555  1.0000
  O   O1        1.0  0.1061609921374895  0.8710804384584135  0.7904752454325318  1.0000
  O   O2        1.0  0.6061626015161465  0.6289249792013506  0.20952780054620485  1.0000
  O   O3        1.0  0.8938393219372003  0.12892618439052234  0.20952112833607828  1.0000
  O   O4        1.0  0.39382414835935725  0.3710712941127881  0.7904780286573895  1.0000
  O   O5        1.0  0.0019041687561980002  0.6667925600301744  0.7899398134936674  1.0000
  O   O6        1.0  0.5018993144554359  0.8332136113650391  0.21005413763327138  1.0000
  O   O7        1.0  0.998102927620252  0.33322624023440284  0.21006420143467608  1.0000
  O   O8        1.0  0.49808291382781533  0.16677663692590272  0.7899428742131106  1.0000
