data_image0
_chemical_formula_structural       Cu4H32C20N32
_chemical_formula_sum              "Cu4 H32 C20 N32"
_cell_length_a       8.355999117488075
_cell_length_b       10.084926845223258
_cell_length_c       11.821039602539292
_cell_angle_alpha    90.00038448084106
_cell_angle_beta     106.60449245806372
_cell_angle_gamma    90.0005206443405

_space_group_name_H-M_alt    "P 1"
_space_group_IT_number       1

loop_
  _space_group_symop_operation_xyz
  'x, y, z'

loop_
  _atom_site_type_symbol
  _atom_site_label
  _atom_site_symmetry_multiplicity
  _atom_site_fract_x
  _atom_site_fract_y
  _atom_site_fract_z
  _atom_site_occupancy
  Cu  Cu1       1.0  0.8711234664045336  0.9292923399343567  0.05639048057162203  1.0000
  Cu  Cu2       1.0  0.6288768867122627  0.42929823494952063  0.9436094441149977  1.0000
  Cu  Cu3       1.0  0.1288697670861012  0.07070178573462732  0.9436109816344003  1.0000
  Cu  Cu4       1.0  0.371126351504394  0.570704814964657  0.05639152682606863  1.0000
  H   H1        1.0  0.9441616192612868  0.7328467402158554  0.251120713286312  1.0000
  H   H2        1.0  0.5558421245106332  0.23284956178734728  0.7488804803060205  1.0000
  H   H3        1.0  0.05584537951546049  0.26715036023249183  0.748878489035377  1.0000
  H   H4        1.0  0.44415984602498076  0.7671564628708581  0.2511236151468737  1.0000
  H   H5        1.0  0.7671930049124426  0.9950332597611437  0.4672749985745028  1.0000
  H   H6        1.0  0.7327896008355523  0.495041659961615  0.5327157476839589  1.0000
  H   H7        1.0  0.23280151516450331  0.004959874308248401  0.532719959171267  1.0000
  H   H8        1.0  0.2672048862899459  0.5049663478134435  0.4672851250508503  1.0000
  H   H9        1.0  0.756550891445755  0.15790244941452167  0.15034697967123375  1.0000
  H   H10       1.0  0.7434330730216417  0.6579127454247314  0.8496429742460805  1.0000
  H   H11       1.0  0.24342990587116728  0.8420906845822461  0.8496426330684983  1.0000
  H   H12       1.0  0.2565689116678059  0.34209129606588123  0.1503585862304959  1.0000
  H   H13       1.0  0.7796179225605401  0.22085447539549827  0.29401901045580564  1.0000
  H   H14       1.0  0.7203694414221645  0.7208624755747268  0.7059736885912146  1.0000
  H   H15       1.0  0.22036536765696724  0.7791386586159847  0.7059719581892239  1.0000
  H   H16       1.0  0.27963503144513163  0.27914156593389816  0.2940300727799183  1.0000
  H   H17       1.0  0.5901985611156421  0.14257822115184382  0.21550601784797152  1.0000
  H   H18       1.0  0.9097926366399915  0.6425952046243923  0.7844920962764093  1.0000
  H   H19       1.0  0.40979094005079014  0.8574079718594524  0.7844921429819324  1.0000
  H   H20       1.0  0.0902093385824614  0.3574058621363322  0.21551115416580302  1.0000
  H   H21       1.0  0.9683684423257617  0.6332742841686003  0.4563969606767628  1.0000
  H   H22       1.0  0.5316251182305649  0.133273324803973  0.543601583849906  1.0000
  H   H23       1.0  0.03164231235293611  0.3667257910267311  0.5436013180533621  1.0000
  H   H24       1.0  0.46837187594217505  0.8667317082393639  0.456398109809598  1.0000
  H   H25       1.0  0.8054184798672425  0.6924919706072005  0.5121743362124676  1.0000
  H   H26       1.0  0.6945834119659722  0.19249179748569398  0.4878296329829936  1.0000
  H   H27       1.0  0.19460098341239981  0.3075051299146879  0.48783164563572984  1.0000
  H   H28       1.0  0.30541730975799203  0.8075142271668128  0.5121742070118743  1.0000
  H   H29       1.0  0.008140259215764402  0.7586017177032931  0.5673838913094045  1.0000
  H   H30       1.0  0.49186486611166913  0.2585983873419125  0.43261391397943794  1.0000
  H   H31       1.0  0.9918767584193089  0.2413993490861445  0.4326122847581502  1.0000
  H   H32       1.0  0.5081458461270572  0.7414106120926933  0.5673919696925013  1.0000
  C   C1        1.0  0.7932688157175746  0.0084335106735907  0.2837611386634222  1.0000
  C   C2        1.0  0.7067192006131862  0.5084434721209805  0.71623387026019  1.0000
  C   C3        1.0  0.20672571380482907  0.9915596233891861  0.716232129103851  1.0000
  C   C4        1.0  0.2932752345479272  0.4915625525327983  0.283776297347778  1.0000
  C   C5        1.0  0.8040176884564618  0.951523625009955  0.3947186356990288  1.0000
  C   C6        1.0  0.6959717614068878  0.45153529419560107  0.6052766471207747  1.0000
  C   C7        1.0  0.1959793292437908  0.04846950907084141  0.6052768329627938  1.0000
  C   C8        1.0  0.3040277020814912  0.5484737051943186  0.39472862740741743  1.0000
  C   C9        1.0  0.8743164984512009  0.8262279878516737  0.3947174262665031  1.0000
  C   C10       1.0  0.6256773720922764  0.3262351621827266  0.6052797405723425  1.0000
  C   C11       1.0  0.1256867491678477  0.17376911258288175  0.605281854670345  1.0000
  C   C12       1.0  0.3743233732883979  0.6737768119262458  0.39471987450200174  1.0000
  C   C13       1.0  0.726656414094286  0.13919553813951788  0.23353665230671797  1.0000
  C   C14       1.0  0.7733372558829928  0.6392063957752117  0.766457718516371  1.0000
  C   C15       1.0  0.27333310128340577  0.8607966043348512  0.7664589735811589  1.0000
  C   C16       1.0  0.2266647523913932  0.3607936793835266  0.23353961699681494  1.0000
  C   C17       1.0  0.9171501151406574  0.7217141202760405  0.487116278152847  1.0000
  C   C18       1.0  0.5828472375626885  0.22171528739576743  0.5128810069285592  1.0000
  C   C19       1.0  0.08286314659963519  0.27828496334524294  0.5128808215105494  1.0000
  C   C20       1.0  0.417152240093877  0.7782937119842334  0.4871217326318913  1.0000
  N   N1        1.0  0.9078717383382299  0.9687110496511839  0.8981991540943923  1.0000
  N   N2        1.0  0.592127931907612  0.4687169835733301  0.10180170091389582  1.0000
  N   N3        1.0  0.09213276752358009  0.031284067624788706  0.10179869231342313  1.0000
  N   N4        1.0  0.4078690339646299  0.5312930073840223  0.8982030627025283  1.0000
  N   N5        1.0  0.7972227059971857  0.9772200008065615  0.8061100885678841  1.0000
  N   N6        1.0  0.7027708480435421  0.4772185672808647  0.19388871769240984  1.0000
  N   N7        1.0  0.2027642740040605  0.02277610799821161  0.19389178633507242  1.0000
  N   N8        1.0  0.29723864363378283  0.5227785331821907  0.8061118405345767  1.0000
  N   N9        1.0  0.6908795809766417  0.9831459210624165  0.7180293328175013  1.0000
  N   N10       1.0  0.8091190351553195  0.4831370562313922  0.28197392643168945  1.0000
  N   N11       1.0  0.3091173848668943  0.016860103579603  0.28197543078178466  1.0000
  N   N12       1.0  0.19088419355127684  0.5168570694798903  0.7180287344492984  1.0000
  N   N13       1.0  0.6352626778536032  0.8844816683606074  0.9785031395613262  1.0000
  N   N14       1.0  0.8647320265389381  0.38448307044844654  0.021496220857088088  1.0000
  N   N15       1.0  0.3647318328568332  0.11552237308257672  0.021493508210092216  1.0000
  N   N16       1.0  0.13526495813809447  0.6155150215496692  0.9785051627509063  1.0000
  N   N17       1.0  0.4670090064545462  0.7859770571757992  0.08610161109333352  1.0000
  N   N18       1.0  0.03298025227765321  0.2859710899685908  0.9138981798358543  1.0000
  N   N19       1.0  0.5329892365226668  0.21402698429440659  0.9138983380199122  1.0000
  N   N20       1.0  0.967009248946198  0.7140230356733782  0.08609998102834031  1.0000
  N   N21       1.0  0.5531551090740052  0.8347559157813154  0.03456279503264169  1.0000
  N   N22       1.0  0.9468413588607801  0.3347524744349217  0.9654391813499076  1.0000
  N   N23       1.0  0.4468368567642926  0.16524515094703673  0.9654417917023467  1.0000
  N   N24       1.0  0.05315563996290958  0.6652426428167646  0.03455966727748461  1.0000
  N   N25       1.0  0.8542457448724008  0.9215496813768386  0.22003188037264473  1.0000
  N   N26       1.0  0.6457532520425316  0.4215524321132734  0.77996687691477  1.0000
  N   N27       1.0  0.14575373739205594  0.07844345273851161  0.7799700141299796  1.0000
  N   N28       1.0  0.3542450192208122  0.5784446682852505  0.22002800223297922  1.0000
  N   N29       1.0  0.9022585755198664  0.812550826599193  0.2881369027744968  1.0000
  N   N30       1.0  0.5977438481084009  0.31255268028485983  0.7118602440245922  1.0000
  N   N31       1.0  0.0977471839050352  0.18744825699450027  0.7118603541192389  1.0000
  N   N32       1.0  0.4022606342187132  0.6874533443748235  0.28814182737660593  1.0000
