data_image0
_chemical_formula_structural       CuH26C32N6O12
_chemical_formula_sum              "Cu1 H26 C32 N6 O12"
_cell_length_a       8.11125314695803
_cell_length_b       9.734584672127808
_cell_length_c       11.49365377748489
_cell_angle_alpha    63.853984167101025
_cell_angle_beta     87.39124160338477
_cell_angle_gamma    73.37787515377232

_space_group_name_H-M_alt    "P 1"
_space_group_IT_number       1

loop_
  _space_group_symop_operation_xyz
  'x, y, z'

loop_
  _atom_site_type_symbol
  _atom_site_label
  _atom_site_symmetry_multiplicity
  _atom_site_fract_x
  _atom_site_fract_y
  _atom_site_fract_z
  _atom_site_occupancy
  Cu  Cu1       1.0  0.9999953067458022  0.500000550245673  0.5000008598988188  1.0000
  H   H1        1.0  0.2848678736980971  0.5838931746094503  0.4586247148165654  1.0000
  H   H2        1.0  0.7151233201544471  0.4161109655519297  0.5413784634081722  1.0000
  H   H3        1.0  0.4122670250073384  0.4059026258846076  0.5343014433034838  1.0000
  H   H4        1.0  0.5877218386674625  0.5940967184739707  0.46569932154729077  1.0000
  H   H5        1.0  0.8511924695762189  0.472557578195172  0.09518156680343275  1.0000
  H   H6        1.0  0.14879355753988924  0.5274430405127077  0.9048196816940289  1.0000
  H   H7        1.0  0.4535998967642669  0.2798829189591175  0.8657090078295369  1.0000
  H   H8        1.0  0.5463964223097123  0.720116232500672  0.1342906844943599  1.0000
  H   H9        1.0  0.763464171537606  0.6419255393076284  0.8871716019903956  1.0000
  H   H10       1.0  0.23653247778842262  0.3580722673761372  0.1128216357365304  1.0000
  H   H11       1.0  0.7544725518843123  0.02991997997249741  0.8622314165169627  1.0000
  H   H12       1.0  0.2455431484799745  0.9700765232837373  0.13777727998966308  1.0000
  H   H13       1.0  0.25062926481680137  0.1736028741442084  0.5989625783057022  1.0000
  H   H14       1.0  0.7493707873804354  0.8264044613741535  0.4010312062364321  1.0000
  H   H15       1.0  0.43103506599594976  0.5253407943106791  0.6804879936723723  1.0000
  H   H16       1.0  0.5689676271218288  0.4746533761032341  0.3195099037682353  1.0000
  H   H17       1.0  0.32061310694365364  0.9484728962898786  0.5365742121237956  1.0000
  H   H18       1.0  0.6793839332678786  0.05152395142503962  0.4634306934121852  1.0000
  H   H19       1.0  0.8753185233930054  0.4602367957067202  0.28905563428934045  1.0000
  H   H20       1.0  0.124688589337893  0.5397630345596343  0.7109312129210252  1.0000
  H   H21       1.0  0.13971072974337767  0.9755887523527349  0.3508729117061263  1.0000
  H   H22       1.0  0.8602894946027461  0.02440558646746641  0.6491302334164999  1.0000
  H   H23       1.0  0.6410426593217408  0.19274714939189155  0.055252436133059704  1.0000
  H   H24       1.0  0.3589483399853535  0.8072533529646506  0.9447486726609566  1.0000
  H   H25       1.0  0.5799138796027494  0.7226009354832568  0.6849155527876079  1.0000
  H   H26       1.0  0.4200870294386405  0.2773991137093575  0.3150749209389261  1.0000
  C   C1        1.0  0.9596413440957577  0.12374933770146876  0.8716274306844339  1.0000
  C   C2        1.0  0.040358742749163  0.8762582182781387  0.12837670951828528  1.0000
  C   C3        1.0  0.6986164342743919  0.56183903906674  0.8798659852346233  1.0000
  C   C4        1.0  0.3013832519304033  0.438161167816105  0.12013056421977814  1.0000
  C   C5        1.0  0.8629129689576941  0.015435460142100508  0.9236127443906952  1.0000
  C   C6        1.0  0.13709475230261592  0.9845671959344103  0.07639474383316994  1.0000
  C   C7        1.0  0.9911283145841525  0.21948982208346018  0.3062381619245755  1.0000
  C   C8        1.0  0.008870662032315043  0.7805127620313429  0.6937566262045961  1.0000
  C   C9        1.0  0.20384256888991104  0.2240835690815999  0.9100570433390728  1.0000
  C   C10       1.0  0.7961578684182129  0.775922770724371  0.08994668306868901  1.0000
  C   C11       1.0  0.7181116799977972  0.4116872566088361  0.9875053328421258  1.0000
  C   C12       1.0  0.2818855316607339  0.588313081936754  0.012494738350859716  1.0000
  C   C13       1.0  0.18467233212458467  0.18460471395661676  0.5133200660698733  1.0000
  C   C14       1.0  0.8153232715864576  0.8153967779915947  0.48667613898535916  1.0000
  C   C15       1.0  0.9132606577567728  0.24860003847572898  0.7324454404361093  1.0000
  C   C16       1.0  0.08674049780159983  0.7514039792135918  0.26756263621201987  1.0000
  C   C17       1.0  0.09849591829021159  0.10837528706976234  0.9499047344509749  1.0000
  C   C18       1.0  0.901508273054219  0.8916228778683291  0.05011331990051805  1.0000
  C   C19       1.0  0.5132020865271869  0.5018326753710198  0.7639719319029581  1.0000
  C   C20       1.0  0.486793864759747  0.4981675820317903  0.23602299638559998  1.0000
  C   C21       1.0  0.2204572201451498  0.05943552118841211  0.4786520662068198  1.0000
  C   C22       1.0  0.7795451311713535  0.9405599205144456  0.5213488339438966  1.0000
  C   C23       1.0  0.9695506933142041  0.34326000652554717  0.3415016342740742  1.0000
  C   C24       1.0  0.03044595601182456  0.6567378001582187  0.6584916034528517  1.0000
  C   C25       1.0  0.1205192544962514  0.07470679213297873  0.37599012240373497  1.0000
  C   C26       1.0  0.8794727962004528  0.9252900617026543  0.6240097450054023  1.0000
  C   C27       1.0  0.6320701831709884  0.3106855373379602  0.9772350501555208  1.0000
  C   C28       1.0  0.3679263333357453  0.6893172702984459  0.022767574570806876  1.0000
  C   C29       1.0  0.8714097971724257  0.2301019047746636  0.20482101927455426  1.0000
  C   C30       1.0  0.12859091623081295  0.7698862536628044  0.7951740509971329  1.0000
  C   C31       1.0  0.5960027148352154  0.6065039949022618  0.7682394998289084  1.0000
  C   C32       1.0  0.4039983818843069  0.3934914024013452  0.2317579833608079  1.0000
  N   N1        1.0  0.062112284016123495  0.32408160217143933  0.44475420460356935  1.0000
  N   N2        1.0  0.9378815442804507  0.675925823670788  0.5552371656527341  1.0000
  N   N3        1.0  0.8190881156603709  0.37489363222070443  0.0975628328608806  1.0000
  N   N4        1.0  0.18090697300780076  0.6251138747643098  0.9024336802998505  1.0000
  N   N5        1.0  0.5336276459642448  0.3592245405603052  0.8675418504816222  1.0000
  N   N6        1.0  0.46637631150513653  0.6407779823184684  0.13245538685924169  1.0000
  O   O1        1.0  0.010225033886314266  0.34093680918329744  0.6860965995846087  1.0000
  O   O2        1.0  0.9897734381437997  0.6590636105050791  0.3139086145128047  1.0000
  O   O3        1.0  0.7848884905208493  0.2542714484228341  0.6697618191976105  1.0000
  O   O4        1.0  0.21511778627894523  0.7457193092428227  0.330248574553842  1.0000
  O   O5        1.0  0.8264825925769513  0.1116079936922958  0.22204478361648233  1.0000
  O   O6        1.0  0.17355488964663118  0.8883935049819129  0.7779402920938098  1.0000
  O   O7        1.0  0.3516082657872417  0.18384826646303765  0.8708350491632969  1.0000
  O   O8        1.0  0.6483905451568504  0.81615086356463  0.12916629925229736  1.0000
  O   O9        1.0  0.14120466419471006  0.3465287207950567  0.9293569636557208  1.0000
  O   O10       1.0  0.8587968486941833  0.6534823704144729  0.07064575916500357  1.0000
  O   O11       1.0  0.3150335352685047  0.4836090854779302  0.5452725009966669  1.0000
  O   O12       1.0  0.6849605009173488  0.5163938170776845  0.45473191952482495  1.0000
