data_image0
_chemical_formula_structural       Cu2Mo4P2H24C26N4O20
_chemical_formula_sum              "Cu2 Mo4 P2 H24 C26 N4 O20"
_cell_length_a       7.935517659601356
_cell_length_b       10.514913680343511
_cell_length_c       12.811414329544315
_cell_angle_alpha    100.89134239804109
_cell_angle_beta     103.92502162778936
_cell_angle_gamma    110.54064960158577

_space_group_name_H-M_alt    "P 1"
_space_group_IT_number       1

loop_
  _space_group_symop_operation_xyz
  'x, y, z'

loop_
  _atom_site_type_symbol
  _atom_site_label
  _atom_site_symmetry_multiplicity
  _atom_site_fract_x
  _atom_site_fract_y
  _atom_site_fract_z
  _atom_site_occupancy
  Cu  Cu1       1.0  0.3807165061155971  0.8357072428529976  0.29453242797792717  1.0000
  Cu  Cu2       1.0  0.6192834150314684  0.16429323120796377  0.7054667903038381  1.0000
  Mo  Mo1       1.0  0.5209470390721691  0.5314541451146654  0.3807801043136792  1.0000
  Mo  Mo2       1.0  0.4790573694830158  0.4685474042154851  0.6192207350459499  1.0000
  Mo  Mo3       1.0  0.7179415779503915  0.8126476370138678  0.6843169024028626  1.0000
  Mo  Mo4       1.0  0.2820590492154764  0.18735177215900486  0.3156838166951773  1.0000
  P   P1        1.0  0.7481007890257984  0.030377226885434507  0.5198415156858047  1.0000
  P   P2        1.0  0.25190173033793434  0.9696232533984316  0.4801588736513553  1.0000
  H   H1        1.0  0.9438344609386108  0.6795860577719637  0.2594941381023333  1.0000
  H   H2        1.0  0.056164751183232  0.3204154791123842  0.7405043591465131  1.0000
  H   H3        1.0  0.6514341366437649  0.5639380990295352  0.08770827952948687  1.0000
  H   H4        1.0  0.3485643604400437  0.43606449654880924  0.9122910562531459  1.0000
  H   H5        1.0  0.6863823462002259  0.547235076634003  0.8951912246455367  1.0000
  H   H6        1.0  0.3136174514951264  0.45276752308813434  0.10480830677311566  1.0000
  H   H7        1.0  0.9134139193218902  0.5939021241133561  0.7811877744292489  1.0000
  H   H8        1.0  0.08658197954524387  0.4061004652420835  0.21881039029798902  1.0000
  H   H9        1.0  0.244299489347732  0.7009222288071159  0.7782097030474591  1.0000
  H   H10       1.0  0.7556964125258148  0.2990803626130187  0.22178768189642994  1.0000
  H   H11       1.0  0.60234064246491  0.8413626694459214  0.88990227119956  1.0000
  H   H12       1.0  0.3976572630325776  0.15863885916522957  0.11009758997997214  1.0000
  H   H13       1.0  0.859301385926969  0.9628261705410213  0.07942023113524507  1.0000
  H   H14       1.0  0.14069475383077903  0.03717216336266921  0.9205788668849308  1.0000
  H   H15       1.0  0.7691483249866735  0.9632546647609815  0.25319386261333693  1.0000
  H   H16       1.0  0.23084936228603684  0.0367394219641639  0.7468048047690987  1.0000
  H   H17       1.0  0.07591113479966789  0.105287811184283  0.6202108076085082  1.0000
  H   H18       1.0  0.9240839302051003  0.8947062528003829  0.37979292698534567  1.0000
  H   H19       1.0  0.04228319752225221  0.1544070578328913  0.4949504017101703  1.0000
  H   H20       1.0  0.9577263864214133  0.8455944894901751  0.5050582382437059  1.0000
  H   H21       1.0  0.3211182144639226  0.7102227239077977  0.5594944011619206  1.0000
  H   H22       1.0  0.6788841724288662  0.289779875843145  0.4405086406621806  1.0000
  H   H23       1.0  0.3750685464537756  0.8611581340775776  0.6344532523090154  1.0000
  H   H24       1.0  0.624932548846701  0.13884446772366493  0.3655472545290054  1.0000
  C   C1        1.0  0.954207300404022  0.6718551126148714  0.1753236623802438  1.0000
  C   C2        1.0  0.04579450692808259  0.3281464284276795  0.8246767857073467  1.0000
  C   C3        1.0  0.7910826634413157  0.6061984206087774  0.07763004485140367  1.0000
  C   C4        1.0  0.20892103608865414  0.3938041915447529  0.9223700734753069  1.0000
  C   C5        1.0  0.8099993020470678  0.5962413328130013  0.9721771757568265  1.0000
  C   C6        1.0  0.19000062210639618  0.40375914331265517  0.027821262741589723  1.0000
  C   C7        1.0  0.9946004487720328  0.6522501069348863  0.9634845263081077  1.0000
  C   C8        1.0  0.005394513825884048  0.34774609716383514  0.03651406293916894  1.0000
  C   C9        1.0  0.15002303861363947  0.7177459125627409  0.06588822528524226  1.0000
  C   C10       1.0  0.8499739306146313  0.28224923079169173  0.9341120604143287  1.0000
  C   C11       1.0  0.033703485098414095  0.6464156689949123  0.8595248614305009  1.0000
  C   C12       1.0  0.9662939642901023  0.35358267524667053  0.14047209287564044  1.0000
  C   C13       1.0  0.21645691246695983  0.7050333615451054  0.8579177782558108  1.0000
  C   C14       1.0  0.783539827896334  0.29496604551986405  0.14207845501741193  1.0000
  C   C15       1.0  0.3753821771990504  0.7744447818143602  0.9609394192742475  1.0000
  C   C16       1.0  0.6246172758133994  0.22555249961824597  0.03906001126753723  1.0000
  C   C17       1.0  0.3402226998149945  0.7793835527754924  0.0644246341536246  1.0000
  C   C18       1.0  0.6597741609936065  0.22061372656360598  0.935572065766067  1.0000
  C   C19       1.0  0.5676708642948257  0.8412054261117279  0.9670489709412069  1.0000
  C   C20       1.0  0.4323215091056483  0.1587907779581812  0.032946107900620795  1.0000
  C   C21       1.0  0.709706567043  0.9086322896788845  0.07128910754431673  1.0000
  C   C22       1.0  0.2902946487027833  0.0913681843964795  0.9287118659401729  1.0000
  C   C23       1.0  0.6616296753325344  0.9081013079581342  0.1699449643472236  1.0000
  C   C24       1.0  0.3383673089277721  0.09189384571978823  0.830051422435588  1.0000
  C   C25       1.0  0.9913314082383948  0.06633080560483512  0.5300674214168879  1.0000
  C   C26       1.0  0.008669092469354382  0.9336707271645185  0.46993439060138104  1.0000
  N   N1        1.0  0.12853331598658724  0.7267139152306044  0.16876008393176536  1.0000
  N   N2        1.0  0.8714674406438124  0.27328337241048933  0.8312387624626895  1.0000
  N   N3        1.0  0.4817861145144564  0.8440008182839878  0.16606238151118913  1.0000
  N   N4        1.0  0.5182159427274797  0.15599647350090612  0.8339366605192853  1.0000
  O   O1        1.0  0.6743575829358481  0.8980953150929526  0.5614771295602454  1.0000
  O   O2        1.0  0.3256453985496747  0.10190835368987901  0.4385246070836004  1.0000
  O   O3        1.0  0.6312152726298947  0.9895262125721801  0.39395346129725084  1.0000
  O   O4        1.0  0.3687845130398202  0.010476378891169702  0.6060491892548114  1.0000
  O   O5        1.0  0.7445044544492277  0.16301911127559524  0.5915637554179514  1.0000
  O   O6        1.0  0.25549358351919704  0.836980297868472  0.40843345327463976  1.0000
  O   O7        1.0  0.41688857869265666  0.6301317196594243  0.3172572165479864  1.0000
  O   O8        1.0  0.5831316674514184  0.3698773295411044  0.6827440451075831  1.0000
  O   O9        1.0  0.7461394421399491  0.5805455091655392  0.37262501667540704  1.0000
  O   O10       1.0  0.2538656830742383  0.41944326967998086  0.6273801821297411  1.0000
  O   O11       1.0  0.5644589598022449  0.6238265169825042  0.5369022502323021  1.0000
  O   O12       1.0  0.4355405789640444  0.37618032580319055  0.4631010265935204  1.0000
  O   O13       1.0  0.3765838219096836  0.349949122527427  0.2633325069103806  1.0000
  O   O14       1.0  0.6234106348557449  0.6500555759572041  0.7366704540178263  1.0000
  O   O15       1.0  0.9445751082156806  0.8296615015497512  0.6943597497903299  1.0000
  O   O16       1.0  0.055421870031814535  0.17033364799877407  0.30563819655918684  1.0000
  O   O17       1.0  0.7508309584844713  0.9506220907099281  0.7954296756511641  1.0000
  O   O18       1.0  0.24917357352242683  0.0493773329590468  0.2045708505715922  1.0000
  O   O19       1.0  0.3814418056916368  0.7687237667347233  0.6383498539435452  1.0000
  O   O20       1.0  0.618558562545175  0.23127988550171358  0.36165461056166504  1.0000
