data_image0
_chemical_formula_structural       Sr2H28C28O16
_chemical_formula_sum              "Sr2 H28 C28 O16"
_cell_length_a       7.813823591007874
_cell_length_b       10.118461209139179
_cell_length_c       10.11845337694697
_cell_angle_alpha    69.13430167670055
_cell_angle_beta     88.772816628863
_cell_angle_gamma    88.77281293239706

_space_group_name_H-M_alt    "P 1"
_space_group_IT_number       1

loop_
  _space_group_symop_operation_xyz
  'x, y, z'

loop_
  _atom_site_type_symbol
  _atom_site_label
  _atom_site_symmetry_multiplicity
  _atom_site_fract_x
  _atom_site_fract_y
  _atom_site_fract_z
  _atom_site_occupancy
  Sr  Sr1       1.0  0.75000071243786  0.9382765121393816  0.061724058122308786  1.0000
  Sr  Sr2       1.0  0.25000059567670974  0.06172394022135559  0.9382763279224805  1.0000
  H   H1        1.0  0.16324633692276794  0.8351554721492962  0.7432778844478065  1.0000
  H   H2        1.0  0.33675569252697807  0.2567224151583787  0.16484391225668563  1.0000
  H   H3        1.0  0.8367549894637422  0.16484392011911808  0.2567218927576462  1.0000
  H   H4        1.0  0.6632468956484843  0.7432780380115886  0.835156451055127  1.0000
  H   H5        1.0  0.9763127234064868  0.6271594147640442  0.7926064679471098  1.0000
  H   H6        1.0  0.5236887049975892  0.2073948554064202  0.3728403744626619  1.0000
  H   H7        1.0  0.02368860458664561  0.3728399798284485  0.20739429669411893  1.0000
  H   H8        1.0  0.4763125832384177  0.7926066547225616  0.6271596329857019  1.0000
  H   H9        1.0  0.8664011629475825  0.5615061563270132  0.5956178735827677  1.0000
  H   H10       1.0  0.6335988543806581  0.4043839843233243  0.4384940765888814  1.0000
  H   H11       1.0  0.13359886671271687  0.4384942975485727  0.40438352263077354  1.0000
  H   H12       1.0  0.3664011537944561  0.5956175249964345  0.5615059535924588  1.0000
  H   H13       1.0  0.9422526553500605  0.7093684140917489  0.3460181345054422  1.0000
  H   H14       1.0  0.5577461991867027  0.6539830632887629  0.29063108739457283  1.0000
  H   H15       1.0  0.05774611252129351  0.29063097888229084  0.6539826756017392  1.0000
  H   H16       1.0  0.44225380898841854  0.3460184460309891  0.7093689427867602  1.0000
  H   H17       1.0  0.2887452948904042  0.035713089028043  0.38702268036183807  1.0000
  H   H18       1.0  0.21125353695975244  0.6129768678360819  0.9642859752014276  1.0000
  H   H19       1.0  0.7112547498286051  0.9642863001070766  0.6129761321408224  1.0000
  H   H20       1.0  0.7887452293049864  0.3870225228138863  0.035713847469978126  1.0000
  H   H21       1.0  0.6525030823761355  0.9409256485705554  0.3755560027798809  1.0000
  H   H22       1.0  0.8474983925455533  0.6244428256337075  0.0590749543182127  1.0000
  H   H23       1.0  0.3474982241318188  0.059074801466110216  0.6244433958291397  1.0000
  H   H24       1.0  0.15250167365863382  0.37555550805723925  0.9409252242166558  1.0000
  H   H25       1.0  0.4891611213304899  0.9460619143158339  0.28312152064215473  1.0000
  H   H26       1.0  0.01083850156799571  0.7168775833454076  0.05393864059139027  1.0000
  H   H27       1.0  0.5108388852380089  0.0539395926798534  0.7168775221034096  1.0000
  H   H28       1.0  0.9891615662428138  0.2831207526696105  0.94606252537924  1.0000
  C   C1        1.0  0.16008972079976766  0.88739083006881  0.5175747777498998  1.0000
  C   C2        1.0  0.3399108667349608  0.482425987613297  0.11260878693362744  1.0000
  C   C3        1.0  0.8399103271324792  0.11260856371445979  0.4824260096243052  1.0000
  C   C4        1.0  0.6600891811972789  0.5175734061699728  0.8873920004405703  1.0000
  C   C5        1.0  0.113473759533079  0.8075541274770187  0.6568871800778666  1.0000
  C   C6        1.0  0.38652787219578505  0.343113272492907  0.19244508898729154  1.0000
  C   C7        1.0  0.8865275469748753  0.19244632255964686  0.3431122185311537  1.0000
  C   C8        1.0  0.6134734343121623  0.6568871775437514  0.8075543096217289  1.0000
  C   C9        1.0  0.009177745119394806  0.6909634379911225  0.683544938102756  1.0000
  C   C10       1.0  0.49082382881081094  0.3164564143761126  0.3090370400920364  1.0000
  C   C11       1.0  0.9908235646017972  0.30903701669368644  0.316456435377809  1.0000
  C   C12       1.0  0.5091774793037588  0.6835440379846246  0.6909633459527598  1.0000
  C   C13       1.0  0.9473453761822342  0.6536136673317117  0.572812718551937  1.0000
  C   C14       1.0  0.5526530376972971  0.4271896805719208  0.3463859598404184  1.0000
  C   C15       1.0  0.05265339329573491  0.34638572796639977  0.42718907899101316  1.0000
  C   C16       1.0  0.4473469903563868  0.5728107709795864  0.653614448937347  1.0000
  C   C17       1.0  0.9891053362634852  0.7359290396501947  0.4341265501655514  1.0000
  C   C18       1.0  0.5108936537584442  0.5658752197945559  0.2640701896420198  1.0000
  C   C19       1.0  0.010894711668761702  0.26407035413307506  0.5658742372086537  1.0000
  C   C20       1.0  0.4891050743557841  0.4341262887159728  0.7359298632722898  1.0000
  C   C21       1.0  0.09550928944466361  0.8537629863120981  0.40414749715491644  1.0000
  C   C22       1.0  0.40448957668074587  0.595853025661519  0.1462365252196421  1.0000
  C   C23       1.0  0.9044907370023978  0.14623746291534453  0.5958519241870803  1.0000
  C   C24       1.0  0.5955104497663157  0.40414742356591665  0.8537628961223548  1.0000
  C   C25       1.0  0.13922813600290604  0.9420720858265881  0.25659786123542017  1.0000
  C   C26       1.0  0.3607693078032455  0.7434022262676692  0.05792652037294491  1.0000
  C   C27       1.0  0.8607693502009398  0.0579273040141501  0.7434019841689619  1.0000
  C   C28       1.0  0.639229458461486  0.25659716438229907  0.9420733022984606  1.0000
  O   O1        1.0  0.2680788259777742  0.9980550810665249  0.4930129684207217  1.0000
  O   O2        1.0  0.23192117979370866  0.5069864838851855  0.0019440876208208706  1.0000
  O   O3        1.0  0.7319212187412277  0.0019443080685946  0.5069858440819388  1.0000
  O   O4        1.0  0.7680788681385381  0.4930129098980771  0.9980566997533772  1.0000
  O   O5        1.0  0.2715155450597138  0.0226482338670593  0.23274817564293931  1.0000
  O   O6        1.0  0.2284828571587738  0.7672518891538261  0.9773501631601533  1.0000
  O   O7        1.0  0.7284832195984026  0.9773511544588374  0.7672506595927048  1.0000
  O   O8        1.0  0.771517170894903  0.23274856239768843  0.02265024561761919  1.0000
  O   O9        1.0  0.0483078479720476  0.9382507309697702  0.15503376525689558  1.0000
  O   O10       1.0  0.451689855849658  0.8449663489640072  0.06174811985521709  1.0000
  O   O11       1.0  0.9516896581103611  0.06174760110272359  0.8449664587439257  1.0000
  O   O12       1.0  0.5483089104150808  0.1550330416859538  0.9382517028161957  1.0000
  O   O13       1.0  0.6103986390819005  0.915804760230607  0.29641328586409094  1.0000
  O   O14       1.0  0.8896011195992771  0.7035866531776591  0.08419555541324554  1.0000
  O   O15       1.0  0.3896014072437169  0.08419463122858421  0.7035865140743383  1.0000
  O   O16       1.0  0.11039892833296963  0.2964127406056107  0.9158052319609524  1.0000
