data_image0
_chemical_formula_structural       Cd4H52C56Br12N16
_chemical_formula_sum              "Cd4 H52 C56 Br12 N16"
_cell_length_a       7.406344554091763
_cell_length_b       14.147521574032254
_cell_length_c       16.02571816206967
_cell_angle_alpha    90.00024608293613
_cell_angle_beta     94.0945798773476
_cell_angle_gamma    89.99998250240832

_space_group_name_H-M_alt    "P 1"
_space_group_IT_number       1

loop_
  _space_group_symop_operation_xyz
  'x, y, z'

loop_
  _atom_site_type_symbol
  _atom_site_label
  _atom_site_symmetry_multiplicity
  _atom_site_fract_x
  _atom_site_fract_y
  _atom_site_fract_z
  _atom_site_occupancy
  Cd  Cd1       1.0  0.25524081350901173  0.4961214532663547  0.5567815511745735  1.0000
  Cd  Cd2       1.0  0.744760428169485  0.9961244219308583  0.9432203732299127  1.0000
  Cd  Cd3       1.0  0.7447595919257566  0.5038730216765545  0.4432223817184421  1.0000
  Cd  Cd4       1.0  0.25524003156080977  0.0038757077020577014  0.056779193558199395  1.0000
  H   H1        1.0  0.703128212871441  0.2683595490519651  0.9637376974343963  1.0000
  H   H2        1.0  0.2968743664822425  0.7683620163713202  0.5362640399891345  1.0000
  H   H3        1.0  0.29687761482645664  0.7316391669149453  0.036265804712364486  1.0000
  H   H4        1.0  0.7031287849884293  0.23164235429016602  0.46373687075683984  1.0000
  H   H5        1.0  0.7192793444331328  0.5213607949452381  0.11438599688744228  1.0000
  H   H6        1.0  0.28071078878319616  0.021364378714224606  0.3856165540949021  1.0000
  H   H7        1.0  0.28070483299501353  0.4786393346952735  0.8856161096250188  1.0000
  H   H8        1.0  0.719286955937413  0.978640698783316  0.6143835399450666  1.0000
  H   H9        1.0  0.80304068083678  0.5383719300648693  0.8512188288784656  1.0000
  H   H10       1.0  0.19694561569616548  0.038371541958397884  0.6487839571844913  1.0000
  H   H11       1.0  0.19695161835120695  0.46162749273807446  0.14878356709747456  1.0000
  H   H12       1.0  0.803048075900982  0.9616321218624295  0.35121536838961726  1.0000
  H   H13       1.0  0.8644372797294437  0.38345344574563  0.778253815577244  1.0000
  H   H14       1.0  0.1355598737457839  0.8834540206514986  0.7217494103795872  1.0000
  H   H15       1.0  0.1355590648255003  0.6165466838979583  0.22174997259402568  1.0000
  H   H16       1.0  0.8644405782280983  0.11655035000845969  0.2782507801473172  1.0000
  H   H17       1.0  0.7995206982689708  0.2756565921694474  0.8247834859023369  1.0000
  H   H18       1.0  0.20047377510039147  0.7756590488929974  0.6752167421139958  1.0000
  H   H19       1.0  0.20047566179889742  0.7243407101207495  0.17521905480201377  1.0000
  H   H20       1.0  0.7995212856363877  0.22434532176237099  0.32478138424399106  1.0000
  H   H21       1.0  0.4133964552404023  0.2771063894344863  0.8413672412514542  1.0000
  H   H22       1.0  0.5866007487038088  0.7771051652140316  0.6586312175214244  1.0000
  H   H23       1.0  0.586595859460587  0.7228944470405737  0.15863390726556753  1.0000
  H   H24       1.0  0.4133983961822806  0.2228949644112461  0.3413651823685838  1.0000
  H   H25       1.0  0.15777538831676452  0.33142727398796984  0.7136262017821264  1.0000
  H   H26       1.0  0.8422232099910614  0.8314287518394394  0.7863693914455181  1.0000
  H   H27       1.0  0.8422251101959259  0.668570735124554  0.2863702463480208  1.0000
  H   H28       1.0  0.1577759581644926  0.1685713777812623  0.21362513725210155  1.0000
  H   H29       1.0  0.667707062108846  0.4379736751530103  0.6593659390826188  1.0000
  H   H30       1.0  0.3322914702241916  0.9379769188246742  0.8406356695422942  1.0000
  H   H31       1.0  0.3322946814396487  0.5620243339808866  0.34063928952278383  1.0000
  H   H32       1.0  0.667706313278856  0.06202815866522832  0.15936130584369573  1.0000
  H   H33       1.0  0.6982612996282286  0.25344671393164486  0.10668932245155818  1.0000
  H   H34       1.0  0.3017478237375001  0.753446686338819  0.393312284280725  1.0000
  H   H35       1.0  0.30173778320595085  0.7465534157058471  0.8933120672848032  1.0000
  H   H36       1.0  0.6982580039604256  0.24655344330326298  0.6066912178686932  1.0000
  H   H37       1.0  0.5198732243422128  0.32984815525994543  0.13052793367047136  1.0000
  H   H38       1.0  0.48013044848354974  0.8298529285902915  0.36947688687987307  1.0000
  H   H39       1.0  0.4801244583263369  0.670148440198773  0.8694771501998628  1.0000
  H   H40       1.0  0.5198726797175935  0.17014790788784498  0.6305258950518178  1.0000
  H   H41       1.0  0.0364207089261654  0.3187467078501812  0.17248568502667885  1.0000
  H   H42       1.0  0.9635871639967063  0.8187420048263266  0.3275080112171835  1.0000
  H   H43       1.0  0.9635797895865467  0.6812520080999324  0.8275107631047972  1.0000
  H   H44       1.0  0.03642012591856061  0.18125034958094235  0.6724868069305854  1.0000
  H   H45       1.0  0.1065245193816295  0.39022463748690234  0.3353248977682667  1.0000
  H   H46       1.0  0.8934955542657476  0.8902170291319605  0.16466825476935296  1.0000
  H   H47       1.0  0.8934908845371439  0.6097754921353628  0.6646708335897742  1.0000
  H   H48       1.0  0.10651988067876059  0.10977108424522443  0.8353249816428556  1.0000
  H   H49       1.0  0.5465047423261779  0.40725922126812003  0.2680150205790354  1.0000
  H   H50       1.0  0.45350840867133974  0.9072633264373664  0.23199042961814334  1.0000
  H   H51       1.0  0.45350378486853055  0.5927402015379144  0.7319892017881171  1.0000
  H   H52       1.0  0.5465028257767058  0.0927389237190184  0.76801388924261  1.0000
  C   C1        1.0  0.7510255223170788  0.3984436540552992  0.8984254082718619  1.0000
  C   C2        1.0  0.248964902346728  0.898443621715174  0.6015745143415214  1.0000
  C   C3        1.0  0.2489694841241743  0.601555061910062  0.10157708419102109  1.0000
  C   C4        1.0  0.7510287970068674  0.10155792159137178  0.3984241874977882  1.0000
  C   C5        1.0  0.7174633503388818  0.3449758067084474  0.9688040083496643  1.0000
  C   C6        1.0  0.2825297563850171  0.8449796653514526  0.5311976803092476  1.0000
  C   C7        1.0  0.2825343633556442  0.6550222024193387  0.03119858060015448  1.0000
  C   C8        1.0  0.7174680038485944  0.15502682581820443  0.4688011662718025  1.0000
  C   C9        1.0  0.7053799389228743  0.388384688664317  0.04651130851635799  1.0000
  C   C10       1.0  0.2946143149179221  0.8883863703892061  0.4534890289615702  1.0000
  C   C11       1.0  0.29461506751842137  0.6116161478138054  0.9534911839505182  1.0000
  C   C12       1.0  0.705386144812408  0.1116158797564637  0.5465105378305424  1.0000
  C   C13       1.0  0.7274427282315797  0.4862916069063701  0.054156288834924675  1.0000
  C   C14       1.0  0.27254609135594177  0.9862953754936612  0.4458460960976254  1.0000
  C   C15       1.0  0.27254552558945727  0.5137078158935112  0.9458447149470215  1.0000
  C   C16       1.0  0.7274489616243683  0.013710408838406402  0.5541526539938173  1.0000
  C   C17       1.0  0.7609641499495365  0.5390324432360317  0.9833703140051069  1.0000
  C   C18       1.0  0.23902621524362636  0.03903422874708439  0.5166319955545404  1.0000
  C   C19       1.0  0.2390295028650868  0.4609669795669191  0.016632130214972597  1.0000
  C   C20       1.0  0.7609688144671835  0.9609694350767981  0.4833686257252906  1.0000
  C   C21       1.0  0.7728486686968806  0.4963915675548236  0.9055214573671149  1.0000
  C   C22       1.0  0.22713631395865258  0.9963943315612627  0.5944811365876246  1.0000
  C   C23       1.0  0.2271463455008487  0.5036064415714279  0.0944804113636408  1.0000
  C   C24       1.0  0.7728546781417336  0.0036114527707909005  0.4055174687714071  1.0000
  C   C25       1.0  0.7623920536225339  0.3501162565827656  0.8150767999018808  1.0000
  C   C26       1.0  0.23760243018240598  0.8501187544886266  0.6849230851923095  1.0000
  C   C27       1.0  0.2376043142018389  0.6498817525434859  0.1849251170730071  1.0000
  C   C28       1.0  0.7623939996939767  0.14988490932610432  0.3150738419468836  1.0000
  C   C29       1.0  0.42601301616001297  0.3183311387887358  0.7849106410846785  1.0000
  C   C30       1.0  0.5739828433973457  0.8183308997754609  0.7150873011853844  1.0000
  C   C31       1.0  0.5739819902812826  0.6816696976893867  0.21509185138220485  1.0000
  C   C32       1.0  0.42601497113159326  0.1816706435204125  0.28490717927076753  1.0000
  C   C33       1.0  0.30187105746416887  0.3454686094695917  0.7214232826296081  1.0000
  C   C34       1.0  0.6981275180794171  0.8454707804996177  0.7785742347455977  1.0000
  C   C35       1.0  0.6981253413861666  0.6545301064881456  0.2785761394234355  1.0000
  C   C36       1.0  0.3018729881898565  0.15453217647448275  0.22142158966308045  1.0000
  C   C37       1.0  0.5611865233796963  0.40281778012725056  0.6908202044762672  1.0000
  C   C38       1.0  0.43882561376317136  0.9028173175993643  0.809176140422977  1.0000
  C   C39       1.0  0.4388234117371112  0.5971837631808584  0.3091797000234563  1.0000
  C   C40       1.0  0.5611884675549276  0.09718351885437217  0.19081704776908023  1.0000
  C   C41       1.0  0.665006111940471  0.32729855436371486  0.12014842704098776  1.0000
  C   C42       1.0  0.3349962537058174  0.8273019894553572  0.3798525932626616  1.0000
  C   C43       1.0  0.3349902636403996  0.6727001615985911  0.8798528662044446  1.0000
  C   C44       1.0  0.6650069055213094  0.17270026069184743  0.6201476937485139  1.0000
  C   C45       1.0  0.9486004837081268  0.34845724360418734  0.21703913804481084  1.0000
  C   C46       1.0  0.05140733598833688  0.8484531844418869  0.2829590363627048  1.0000
  C   C47       1.0  0.0514013296487832  0.651541472353557  0.7829604769847689  1.0000
  C   C48       1.0  0.9485999151444913  0.15153916997301312  0.7170389004390356  1.0000
  C   C49       1.0  0.9801450669485446  0.3841739393159074  0.2968152195132275  1.0000
  C   C50       1.0  0.0198614702148276  0.8841730293654992  0.20317742777675815  1.0000
  C   C51       1.0  0.019862207453869  0.6158254834702745  0.7031808461094611  1.0000
  C   C52       1.0  0.9801431357166736  0.11582215238752981  0.7968154226956868  1.0000
  C   C53       1.0  0.6903382495974241  0.3944428230579575  0.2652039441948375  1.0000
  C   C54       1.0  0.3096803697409172  0.8944455527358102  0.23479728452644363  1.0000
  C   C55       1.0  0.3096757153732738  0.6055544792307473  0.7347985999524693  1.0000
  C   C56       1.0  0.690329565375869  0.10555457689712712  0.7652026199706157  1.0000
  Br  Br1       1.0  0.5773132366661429  0.6101746301345516  0.5616199520347747  1.0000
  Br  Br2       1.0  0.4226799624437659  0.11017208638747181  0.9383727426096937  1.0000
  Br  Br3       1.0  0.42267780197315125  0.3898297405131713  0.4383749109368295  1.0000
  Br  Br4       1.0  0.5773151758577553  0.8898245090391869  0.061619146425684286  1.0000
  Br  Br5       1.0  0.9379385616770646  0.38691852325634807  0.5571381555126962  1.0000
  Br  Br6       1.0  0.06206265280290781  0.8869272608869069  0.9428652282597338  1.0000
  Br  Br7       1.0  0.06205078980636359  0.6130738312180456  0.4428834796162774  1.0000
  Br  Br8       1.0  0.9379391527976111  0.11307710977305163  0.05713501051130978  1.0000
  Br  Br9       1.0  0.791786220785788  0.6724749180430935  0.9928551175322297  1.0000
  Br  Br10      1.0  0.20820277231257475  0.17247666239077833  0.5071495182251267  1.0000
  Br  Br11      1.0  0.2082074320288285  0.3275237979222609  0.007147326686514098  1.0000
  Br  Br12      1.0  0.7917949568950532  0.8275284151098108  0.49285182327643173  1.0000
  N   N1        1.0  0.3878587856293122  0.39779493961958684  0.6632910257887515  1.0000
  N   N2        1.0  0.6121370923001945  0.8977967028477636  0.8367059687040947  1.0000
  N   N3        1.0  0.6121403204743103  0.6022037763381507  0.3367084927525638  1.0000
  N   N4        1.0  0.38785666134884883  0.1022062541232671  0.16328836702231794  1.0000
  N   N5        1.0  0.5899930412721728  0.3552640450669814  0.7642653342192955  1.0000
  N   N6        1.0  0.4100054880849555  0.8552674691256216  0.735735962484412  1.0000
  N   N7        1.0  0.4100046491529027  0.6447346709029703  0.23573912592424046  1.0000
  N   N8        1.0  0.5899949871584055  0.14473760836734334  0.26426235685143945  1.0000
  N   N9        1.0  0.8175475394846712  0.41242066806917427  0.32596834050779927  1.0000
  N   N10       1.0  0.182469773412727  0.912418881024621  0.1740291653756358  1.0000
  N   N11       1.0  0.18246510288539494  0.5875794615637702  0.6740316604775314  1.0000
  N   N12       1.0  0.8175428999832306  0.08757771441428731  0.8259683406798499  1.0000
  N   N13       1.0  0.7638416079093273  0.3555439666625375  0.19812196963708567  1.0000
  N   N14       1.0  0.2361661965292043  0.8555435028529603  0.3018774789648475  1.0000
  N   N15       1.0  0.23616154356125918  0.6444554561358515  0.8018789410995523  1.0000
  N   N16       1.0  0.7638410468472185  0.14445379942657147  0.6981210815770209  1.0000
