data_image0
_chemical_formula_structural       Cd2H10C10N6Cl4O4
_chemical_formula_sum              "Cd2 H10 C10 N6 Cl4 O4"
_cell_length_a       6.9844948588442675
_cell_length_b       7.5933079880682905
_cell_length_c       9.790869786984688
_cell_angle_alpha    100.66848014864038
_cell_angle_beta     97.85615792942448
_cell_angle_gamma    114.5815936588267

_space_group_name_H-M_alt    "P 1"
_space_group_IT_number       1

loop_
  _space_group_symop_operation_xyz
  'x, y, z'

loop_
  _atom_site_type_symbol
  _atom_site_label
  _atom_site_symmetry_multiplicity
  _atom_site_fract_x
  _atom_site_fract_y
  _atom_site_fract_z
  _atom_site_occupancy
  Cd  Cd1       1.0  0.7383979550387709  0.5150433184013181  0.9262168250959989  1.0000
  Cd  Cd2       1.0  0.2616201793274229  0.48496989629721554  0.07378853302071062  1.0000
  H   H1        1.0  0.9293900163930293  0.6581278457882294  0.3067816461802978  1.0000
  H   H2        1.0  0.07060741120074704  0.34185666545629795  0.6932180149930431  1.0000
  H   H3        1.0  0.7139300250438938  0.4677401732794024  0.35566029269464394  1.0000
  H   H4        1.0  0.28607178313416165  0.5322474671312064  0.6443422300336793  1.0000
  H   H5        1.0  0.3563414482705626  0.09531254773116869  0.7410225938417625  1.0000
  H   H6        1.0  0.643648046127204  0.9046953012431442  0.258969181847867  1.0000
  H   H7        1.0  0.20220112039415009  0.9279917353067686  0.5033700837109477  1.0000
  H   H8        1.0  0.7977930437882962  0.07200138868928718  0.4966222335044463  1.0000
  H   H9        1.0  0.17135731869569756  0.9360131045195669  0.9271051859533159  1.0000
  H   H10       1.0  0.8286431986196588  0.06399658418794019  0.07289194217315746  1.0000
  C   C1        1.0  0.20684285345353703  0.9560307689365217  0.7152896444633541  1.0000
  C   C2        1.0  0.793151242644811  0.04397441682522189  0.284709359975885  1.0000
  C   C3        1.0  0.1045231288866687  0.8689371124715705  0.8126022204709642  1.0000
  C   C4        1.0  0.8954760002529627  0.13106656309584958  0.18739296664877264  1.0000
  C   C5        1.0  0.9319101362769118  0.6868566746845345  0.5226147897993201  1.0000
  C   C6        1.0  0.06808057752665055  0.31313510917487963  0.47738418194278154  1.0000
  C   C7        1.0  0.8314778750271968  0.6019996042926152  0.6298588811730782  1.0000
  C   C8        1.0  0.16852424989379233  0.3980072658844873  0.370142112268141  1.0000
  C   C9        1.0  0.6292946808857138  0.3999728123398966  0.5891075113370263  1.0000
  C   C10       1.0  0.37071119373297984  0.6000357795805584  0.4108991648679635  1.0000
  N   N1        1.0  0.9198516925102496  0.6940553799326921  0.7671713976684061  1.0000
  N   N2        1.0  0.08014541925348335  0.30594391436376606  0.23282711254000796  1.0000
  N   N3        1.0  0.8569514771589939  0.5991921206553741  0.3839875435352553  1.0000
  N   N4        1.0  0.1430459753780227  0.40079242238971347  0.616013145745626  1.0000
  N   N5        1.0  0.11756349879529178  0.8650465023849989  0.5736807607734989  1.0000
  N   N6        1.0  0.882425582459412  0.1349480682042596  0.4263133175463168  1.0000
  Cl  Cl1       1.0  0.07449717744498938  0.7444952460667053  0.13604164251821527  1.0000
  Cl  Cl2       1.0  0.925521028378107  0.25551198544982867  0.8639619141478793  1.0000
  Cl  Cl3       1.0  0.5031518973043276  0.2923823167604239  0.06545605905292008  1.0000
  Cl  Cl4       1.0  0.49685372450920806  0.7076198785707603  0.9345354503034359  1.0000
  O   O1        1.0  0.5510261066980249  0.33967213229963267  0.691168307118332  1.0000
  O   O2        1.0  0.44896982318148554  0.6603335604285759  0.3088462584901279  1.0000
  O   O3        1.0  0.5545982301840979  0.304519924211462  0.4583974740041229  1.0000
  O   O4        1.0  0.4453976198064921  0.6954765552395513  0.5416066786218681  1.0000
