data_image0
_chemical_formula_structural       Cu2Ni2H16C24N16O8
_chemical_formula_sum              "Cu2 Ni2 H16 C24 N16 O8"
_cell_length_a       9.192533674510067
_cell_length_b       9.192521128086188
_cell_length_c       10.456627714295413
_cell_angle_alpha    100.52929497575722
_cell_angle_beta     100.52854946993324
_cell_angle_gamma    92.26657826248467

_space_group_name_H-M_alt    "P 1"
_space_group_IT_number       1

loop_
  _space_group_symop_operation_xyz
  'x, y, z'

loop_
  _atom_site_type_symbol
  _atom_site_label
  _atom_site_symmetry_multiplicity
  _atom_site_fract_x
  _atom_site_fract_y
  _atom_site_fract_z
  _atom_site_occupancy
  Cu  Cu1       1.0  0.9999969907980031  0.9999992216799785  0.9999986051909463  1.0000
  Cu  Cu2       1.0  7.141816099006128e-07  5.013929580900317e-06  0.5000046854503069  1.0000
  Ni  Ni1       1.0  0.8512239635916429  0.14877826528945093  0.2500038021700633  1.0000
  Ni  Ni2       1.0  0.1487751709830931  0.8512198679623851  0.7499959244688768  1.0000
  H   H1        1.0  0.06384504073250952  0.5910590445394918  0.10219976618627413  1.0000
  H   H2        1.0  0.4089385172918866  0.9361574412627861  0.3978071106777251  1.0000
  H   H3        1.0  0.9361621761430496  0.40894360989538825  0.8978067139382945  1.0000
  H   H4        1.0  0.5910558734367513  0.06383621128134112  0.6021892601409888  1.0000
  H   H5        1.0  0.03000580550592251  0.32940723259038424  0.1323110565302912  1.0000
  H   H6        1.0  0.6705897210835089  0.9699935600821024  0.3676930478872934  1.0000
  H   H7        1.0  0.9699987822453764  0.6705898236201335  0.8676883983475607  1.0000
  H   H8        1.0  0.32941148703017115  0.030002380965292706  0.632308572887169  1.0000
  H   H9        1.0  0.7143639220336127  0.4376491763940962  0.3643843136271415  1.0000
  H   H10       1.0  0.5623565459456543  0.28564595251122443  0.13563498915738853  1.0000
  H   H11       1.0  0.28564415626995293  0.5623501394797615  0.6356189098908587  1.0000
  H   H12       1.0  0.437641101377963  0.714346625096539  0.8643636356644537  1.0000
  H   H13       1.0  0.7304167044193477  0.7019252793286272  0.33711321488610935  1.0000
  H   H14       1.0  0.29807842199912227  0.2695938842812354  0.16290053287961836  1.0000
  H   H15       1.0  0.2695923346049227  0.2980718308490112  0.6628907702122717  1.0000
  H   H16       1.0  0.7019203207098028  0.7303986893652027  0.8370963499726686  1.0000
  C   C1        1.0  0.9828779020614677  0.5599760460352672  0.15817965010926127  1.0000
  C   C2        1.0  0.4400221523221076  0.0171203761471475  0.34182248098515094  1.0000
  C   C3        1.0  0.017123364668044906  0.4400209871530195  0.8418192816278777  1.0000
  C   C4        1.0  0.55997681853313  0.9828755262812833  0.6581749583292479  1.0000
  C   C5        1.0  0.9662705323213031  0.4151769798525536  0.1765182591125126  1.0000
  C   C6        1.0  0.5848229393929784  0.033731614995808505  0.32348787787653793  1.0000
  C   C7        1.0  0.033735396394554605  0.5848234186317427  0.8234828847825926  1.0000
  C   C8        1.0  0.415175967035445  0.9662631894740341  0.6765112923002832  1.0000
  C   C9        1.0  0.7889106366039583  0.4749479800753137  0.30492936939234033  1.0000
  C   C10       1.0  0.5250545122309872  0.21109444691160215  0.19508273875641183  1.0000
  C   C11       1.0  0.21109283832909403  0.5250490626434258  0.6950689529303775  1.0000
  C   C12       1.0  0.47494558306445356  0.7889014806440147  0.8049177494629164  1.0000
  C   C13       1.0  0.8943058744620984  0.665270685860115  0.21192115926881175  1.0000
  C   C14       1.0  0.3347280722006474  0.10569198523177191  0.288082999884054  1.0000
  C   C15       1.0  0.1056942852601495  0.33472633965409687  0.7880775980880942  1.0000
  C   C16       1.0  0.6652698851290353  0.8943050365696834  0.7119173250621744  1.0000
  C   C17       1.0  0.9032122152811866  0.8190373071346856  0.18236375943371297  1.0000
  C   C18       1.0  0.18096311822027636  0.09679893977445893  0.3176435248326471  1.0000
  C   C19       1.0  0.09679268828715949  0.18096419908723504  0.8176383537434192  1.0000
  C   C20       1.0  0.8190330755765203  0.9032047184251372  0.6823566061024523  1.0000
  C   C21       1.0  0.7981617968097438  0.622252298349011  0.28984571737145615  1.0000
  C   C22       1.0  0.3777479779805333  0.20184351314165383  0.21016491426084374  1.0000
  C   C23       1.0  0.20184265046597719  0.3777425503089162  0.7101552828814449  1.0000
  C   C24       1.0  0.6222521115039256  0.7981524085962591  0.7898346157835903  1.0000
  N   N1        1.0  0.8690728048499919  0.3715958399876983  0.2468786058427456  1.0000
  N   N2        1.0  0.6284063187714962  0.1309304635094932  0.25312930351845614  1.0000
  N   N3        1.0  0.13092852630633442  0.6284022911591837  0.7531185950319783  1.0000
  N   N4        1.0  0.37159392281050435  0.8690676774164178  0.746870597500724  1.0000
  N   N5        1.0  0.814147206736898  0.08910050145095032  0.04205638132071956  1.0000
  N   N6        1.0  0.9108995964223398  0.18585574311361341  0.4579499237173439  1.0000
  N   N7        1.0  0.1858457072209987  0.910904208414195  0.9579376629116609  1.0000
  N   N8        1.0  0.08909659737445712  0.8141479150859825  0.5420502072177557  1.0000
  N   N9        1.0  0.7515611778844117  0.17358918646191057  0.9772223641714677  1.0000
  N   N10       1.0  0.8264000979693333  0.24844780835801572  0.522792524856456  1.0000
  N   N11       1.0  0.24844476826437756  0.8264112294754895  0.022781654248319683  1.0000
  N   N12       1.0  0.17358661810962417  0.751562467427391  0.4772119404552342  1.0000
  N   N13       1.0  0.6883390899868046  0.25434882158861444  0.9173298513211993  1.0000
  N   N14       1.0  0.7456520094162042  0.31165731786640555  0.5826780049108962  1.0000
  N   N15       1.0  0.31165908853662216  0.7456681245068282  0.08266693079322351  1.0000
  N   N16       1.0  0.25434402066109396  0.6883441095097922  0.4173198386996618  1.0000
  O   O1        1.0  0.9577564815553783  0.8288867038397286  0.08024074606711208  1.0000
  O   O2        1.0  0.1711128830940609  0.042261224063018715  0.4197700589229214  1.0000
  O   O3        1.0  0.042239466662167005  0.17111360812476306  0.919755953881179  1.0000
  O   O4        1.0  0.8288877370841733  0.9577580321987045  0.5802398992003789  1.0000
  O   O5        1.0  0.857458645549592  0.9221923079064429  0.25975133468946876  1.0000
  O   O6        1.0  0.07780738325800479  0.14253972319020394  0.2402508151526419  1.0000
  O   O7        1.0  0.14254515101148257  0.0778091906413962  0.7402506041074304  1.0000
  O   O8        1.0  0.92218834262421  0.8574572658099984  0.759746286508424  1.0000
