data_image0
_chemical_formula_structural       Cd4H44C52N8O20
_chemical_formula_sum              "Cd4 H44 C52 N8 O20"
_cell_length_a       10.26513978149076
_cell_length_b       10.265360471578015
_cell_length_c       13.258196390611927
_cell_angle_alpha    74.86955667374443
_cell_angle_beta     74.86886863435016
_cell_angle_gamma    83.09145665324661

_space_group_name_H-M_alt    "P 1"
_space_group_IT_number       1

loop_
  _space_group_symop_operation_xyz
  'x, y, z'

loop_
  _atom_site_type_symbol
  _atom_site_label
  _atom_site_symmetry_multiplicity
  _atom_site_fract_x
  _atom_site_fract_y
  _atom_site_fract_z
  _atom_site_occupancy
  Cd  Cd1       1.0  0.11043853593343302  0.03265511456907431  0.09727655007994682  1.0000
  Cd  Cd2       1.0  0.9673575241837754  0.8895586754210717  0.40271772057844396  1.0000
  Cd  Cd3       1.0  0.8895542968482815  0.9673441611410993  0.902726826775485  1.0000
  Cd  Cd4       1.0  0.03264628432515339  0.11044444564616637  0.5972812396925279  1.0000
  H   H1        1.0  0.6206003738063828  0.037578668383289895  0.08554118610445018  1.0000
  H   H2        1.0  0.9624292669506288  0.37938946778366767  0.4144662773546344  1.0000
  H   H3        1.0  0.3793875807713575  0.9624156359762567  0.9144656318824645  1.0000
  H   H4        1.0  0.03757962181016689  0.6206135871742617  0.5855286819257729  1.0000
  H   H5        1.0  0.00656500894043429  0.5215323266345636  0.8391438908917765  1.0000
  H   H6        1.0  0.4784726797302099  0.9934270216137127  0.6608622040118489  1.0000
  H   H7        1.0  0.993426799033635  0.478468001427089  0.16085721767753122  1.0000
  H   H8        1.0  0.5215241113830303  0.0065762869194614  0.33913281627772557  1.0000
  H   H9        1.0  0.9104343995626322  0.27291458733618873  0.9623768404302596  1.0000
  H   H10       1.0  0.727097830231905  0.08955824832488452  0.5376316285141343  1.0000
  H   H11       1.0  0.0895593530915235  0.7270856269016124  0.03763145185956054  1.0000
  H   H12       1.0  0.2729042199998161  0.9104378377028443  0.46236905705207926  1.0000
  H   H13       1.0  0.35534109208351333  0.7336907890604324  0.2969389283115973  1.0000
  H   H14       1.0  0.2663078437871107  0.644653922592873  0.2030543651072065  1.0000
  H   H15       1.0  0.6446579573704411  0.2663022403357687  0.7030712429976448  1.0000
  H   H16       1.0  0.7336859845159295  0.3553474151415728  0.7969423774822033  1.0000
  H   H17       1.0  0.3031464494867748  0.29775106377720556  0.9958195800929206  1.0000
  H   H18       1.0  0.7022592234512786  0.6968658981696694  0.5041636158622539  1.0000
  H   H19       1.0  0.6968523541329219  0.7022521987270453  0.004175808654181807  1.0000
  H   H20       1.0  0.29774473435170273  0.30313213270824246  0.4958400853097374  1.0000
  H   H21       1.0  0.44999291517918744  0.5751045691541706  0.42022019679900785  1.0000
  H   H22       1.0  0.4248965556077522  0.5500062014432316  0.07976891608527836  1.0000
  H   H23       1.0  0.5500112516354605  0.4248863354586804  0.5797901416344047  1.0000
  H   H24       1.0  0.5751139409912154  0.4500047860677584  0.920235485742765  1.0000
  H   H25       1.0  0.7720888074200188  0.7167120695728286  0.3173365561098008  1.0000
  H   H26       1.0  0.2832878030893439  0.22791425585882055  0.18265082913259792  1.0000
  H   H27       1.0  0.22791233772554154  0.2832820448238635  0.6826616767051163  1.0000
  H   H28       1.0  0.7167300335334372  0.7720916272506174  0.817344836794675  1.0000
  H   H29       1.0  0.3714041191024933  0.5055900340100125  0.8191429074239309  1.0000
  H   H30       1.0  0.49441557523657303  0.6286017229657261  0.6808465981702271  1.0000
  H   H31       1.0  0.6285927540509134  0.4944102128767938  0.180855714657696  1.0000
  H   H32       1.0  0.5055843879847828  0.3713974782700618  0.3191493598949578  1.0000
  H   H33       1.0  0.29209836089206914  0.588857363274933  0.9225346908040777  1.0000
  H   H34       1.0  0.41115038275923144  0.7079019936281272  0.5774543641581645  1.0000
  H   H35       1.0  0.7078964623598054  0.41114394014589817  0.07746337189126253  1.0000
  H   H36       1.0  0.5888525731311417  0.29209816036851777  0.4225408197873862  1.0000
  H   H37       1.0  0.132059187190201  0.7163725076681828  0.8166683366913929  1.0000
  H   H38       1.0  0.2836292550712897  0.8679382995799968  0.6833231633441628  1.0000
  H   H39       1.0  0.8679395265668289  0.2836327607807121  0.18332818470107534  1.0000
  H   H40       1.0  0.7163716958488847  0.13206190797834694  0.3166708948924181  1.0000
  H   H41       1.0  0.20035259285538842  0.6308899747810274  0.7129497523113884  1.0000
  H   H42       1.0  0.369109282203766  0.7996465655654886  0.7870400239415788  1.0000
  H   H43       1.0  0.7996422379327514  0.3691113361725726  0.2870475531325098  1.0000
  H   H44       1.0  0.6308906137637109  0.2003546642132649  0.212954795014646  1.0000
  C   C1        1.0  0.4793087160189771  0.888699040178977  0.18330159970420115  1.0000
  C   C2        1.0  0.11130392318484889  0.5206833395052115  0.3166960268786738  1.0000
  C   C3        1.0  0.520683293430494  0.11129415408485242  0.8167069033779698  1.0000
  C   C4        1.0  0.8886958304523487  0.47932089165774294  0.683301248297042  1.0000
  C   C5        1.0  0.604694350395057  0.9458279455686452  0.1496528717434344  1.0000
  C   C6        1.0  0.054176285334975184  0.3953013041624658  0.3503496661872134  1.0000
  C   C7        1.0  0.39530360756985766  0.054170261059894614  0.8503459377987569  1.0000
  C   C8        1.0  0.945824545291224  0.6046998310405057  0.6496525308864848  1.0000
  C   C9        1.0  0.052333286329044895  0.43927953800417185  0.8904955926915862  1.0000
  C   C10       1.0  0.5607299809625628  0.9476632802633631  0.6095038856428233  1.0000
  C   C11       1.0  0.9476614395238909  0.5607237638285413  0.10950435990056208  1.0000
  C   C12       1.0  0.4392649167932134  0.052334953978324  0.39049853609601837  1.0000
  C   C13       1.0  0.005242470289957193  0.31678598546069753  0.9522843359933335  1.0000
  C   C14       1.0  0.6832156484807895  0.9947587870832566  0.547715583318535  1.0000
  C   C15       1.0  0.994754410113465  0.6832132207899306  0.04771750602282767  1.0000
  C   C16       1.0  0.316785197217932  0.005242363185253401  0.4522850992522721  1.0000
  C   C17       1.0  0.36637646485569764  0.9549961758529903  0.13252771453419845  1.0000
  C   C18       1.0  0.04500563483401979  0.6336157648397319  0.3674712998972538  1.0000
  C   C19       1.0  0.6336176095678425  0.044995976942359996  0.867479833431375  1.0000
  C   C20       1.0  0.9549964458290033  0.366381399488013  0.6325223794772158  1.0000
  C   C21       1.0  0.4566447725777111  0.7724887367185502  0.26770990929502864  1.0000
  C   C22       1.0  0.22751146373377645  0.543350176930126  0.23228218104593176  1.0000
  C   C23       1.0  0.5433480822402998  0.2275084652520434  0.7322991501780295  1.0000
  C   C24       1.0  0.7724881107505651  0.4566601624600182  0.7677094050485567  1.0000
  C   C25       1.0  0.20810227597645786  0.32538766314396383  0.9724425937207783  1.0000
  C   C26       1.0  0.6746207256266671  0.7919092060018259  0.5275497440645794  1.0000
  C   C27       1.0  0.7918926296018257  0.6746116267994466  0.02755509358063789  1.0000
  C   C28       1.0  0.3253811674885014  0.20809091451351244  0.4724509350380331  1.0000
  C   C29       1.0  0.709326658035522  0.8844338963433458  0.19852337459998645  1.0000
  C   C30       1.0  0.11556854403752229  0.29067107753023436  0.3014779430101839  1.0000
  C   C31       1.0  0.2906714564734684  0.11555817945968982  0.8014833957777585  1.0000
  C   C32       1.0  0.8844484846117949  0.7093297873673379  0.6985173574549607  1.0000
  C   C33       1.0  0.6893382175145388  0.7659921426653185  0.2810900626068076  1.0000
  C   C34       1.0  0.23401072681124188  0.3106641386788668  0.21890398730668184  1.0000
  C   C35       1.0  0.31065990481695843  0.23400098883943346  0.7189119733335192  1.0000
  C   C36       1.0  0.7660040722111886  0.6893417946420257  0.781093019062908  1.0000
  C   C37       1.0  0.8429882774433107  0.9462618947853373  0.16106767278797204  1.0000
  C   C38       1.0  0.0537432097983626  0.15701181087730726  0.33892946631035414  1.0000
  C   C39       1.0  0.15700950833252134  0.053740331265274215  0.8389326447935019  1.0000
  C   C40       1.0  0.9462657615750842  0.8429902787721489  0.661061140390153  1.0000
  C   C41       1.0  0.5619320728889788  0.7122613350688596  0.3160547882435623  1.0000
  C   C42       1.0  0.2877421020479644  0.4380698580364779  0.18393564377264232  1.0000
  C   C43       1.0  0.43807198202669173  0.28773364922822253  0.683951000217597  1.0000
  C   C44       1.0  0.7122635395283223  0.5619382770600795  0.8160619730606059  1.0000
  C   C45       1.0  0.27475365283571307  0.5515521140583105  0.8568366930872104  1.0000
  C   C46       1.0  0.4484548933253194  0.7252499975578248  0.6431540738455512  1.0000
  C   C47       1.0  0.7252411779524265  0.44844919689528956  0.143160612356688  1.0000
  C   C48       1.0  0.5515450098921731  0.2747501915847437  0.35684396504520066  1.0000
  C   C49       1.0  0.22537727465330445  0.6684772552635962  0.7757723202819947  1.0000
  C   C50       1.0  0.3315221145909674  0.7746211485653306  0.7242213804995431  1.0000
  C   C51       1.0  0.7746195312462163  0.3315250201661684  0.22422516269067228  1.0000
  C   C52       1.0  0.6684747362398937  0.22538012389210857  0.2757755361504408  1.0000
  N   N1        1.0  0.10315329498046569  0.24743643090845072  0.0034813458778443765  1.0000
  N   N2        1.0  0.7525753268082764  0.8968488018280569  0.49651419478676223  1.0000
  N   N3        1.0  0.8968414981263493  0.7525648423812967  0.9965197458232709  1.0000
  N   N4        1.0  0.24742863853096955  0.1031492365826239  0.5034887491337798  1.0000
  N   N5        1.0  0.18073809558116943  0.44293565849301336  0.9041787316609204  1.0000
  N   N6        1.0  0.5570754499857884  0.8192662147849532  0.5958133280299265  1.0000
  N   N7        1.0  0.8192577750871375  0.5570646151746387  0.0958193275662255  1.0000
  N   N8        1.0  0.4429275580859409  0.1807318956031949  0.4041845095274752  1.0000
  O   O1        1.0  0.27438287299986536  0.877819453876633  0.13559871346967617  1.0000
  O   O2        1.0  0.1221854545712446  0.7256056924127493  0.36440195720207674  1.0000
  O   O3        1.0  0.7256111043109781  0.12217574549953981  0.8644067472067365  1.0000
  O   O4        1.0  0.877813423838603  0.274395549081305  0.6355938134025507  1.0000
  O   O5        1.0  0.36394979200378685  0.0806773693066063  0.09210150121847252  1.0000
  O   O6        1.0  0.9193158252544718  0.6360419733052255  0.4078956382234509  1.0000
  O   O7        1.0  0.6360423522396983  0.9193128160402394  0.9079053028956567  1.0000
  O   O8        1.0  0.0806862554085512  0.3639551910225265  0.5920980411510115  1.0000
  O   O9        1.0  0.5443086914363207  0.5983214897500275  0.40036146713092075  1.0000
  O   O10       1.0  0.4016721870666444  0.4556952422667636  0.09962270673165109  1.0000
  O   O11       1.0  0.45569439838933323  0.40167251082280603  0.5996439494045092  1.0000
  O   O12       1.0  0.5983372174707995  0.5443188261386708  0.9003782877013011  1.0000
  O   O13       1.0  0.8695519462259538  0.034533033563498315  0.07160551934438797  1.0000
  O   O14       1.0  0.9654741686637462  0.13044575487352725  0.4283931363889409  1.0000
  O   O15       1.0  0.13044064711278477  0.9654722901117125  0.9283982264413739  1.0000
  O   O16       1.0  0.03453249800643477  0.8695623760404988  0.5716027715444626  1.0000
  O   O17       1.0  0.9301650320357876  0.9096725644186491  0.21834435008269543  1.0000
  O   O18       1.0  0.09033379276456091  0.069837167558056  0.2816518240848396  1.0000
  O   O19       1.0  0.06983694340578948  0.0903255426192615  0.781655953625993  1.0000
  O   O20       1.0  0.909676165735213  0.9301638320760689  0.7183448371590161  1.0000
