data_image0
_chemical_formula_structural       Zn4H20C28N4O24
_chemical_formula_sum              "Zn4 H20 C28 N4 O24"
_cell_length_a       5.904146249003072
_cell_length_b       5.6593037878291605
_cell_length_c       24.050954022886945
_cell_angle_alpha    93.033257423097
_cell_angle_beta     90.00009168967574
_cell_angle_gamma    89.99992744896585

_space_group_name_H-M_alt    "P 1"
_space_group_IT_number       1

loop_
  _space_group_symop_operation_xyz
  'x, y, z'

loop_
  _atom_site_type_symbol
  _atom_site_label
  _atom_site_symmetry_multiplicity
  _atom_site_fract_x
  _atom_site_fract_y
  _atom_site_fract_z
  _atom_site_occupancy
  Zn  Zn1       1.0  0.05279931502848001  0.7369815596530103  0.9612719662556443  1.0000
  Zn  Zn2       1.0  0.5527960771296209  0.26301703580512736  0.5387289542949745  1.0000
  Zn  Zn3       1.0  0.9472037975380232  0.26300925228396477  0.0387288193902151  1.0000
  Zn  Zn4       1.0  0.4472002605295984  0.7369861598747105  0.4612719255997035  1.0000
  H   H1        1.0  0.4397876710146349  0.90462423636599  0.7676615245104301  1.0000
  H   H2        1.0  0.9397858387652533  0.0953808952688036  0.7323387714709779  1.0000
  H   H3        1.0  0.5602120540932846  0.09537892286817852  0.2323389392354258  1.0000
  H   H4        1.0  0.06021388633802621  0.9046257292892079  0.2676608869044941  1.0000
  H   H5        1.0  0.7702182736196477  0.6420010012146024  0.7482282112016349  1.0000
  H   H6        1.0  0.27022237671425137  0.3580024932091064  0.751771171594356  1.0000
  H   H7        1.0  0.22978145148110946  0.35800555045617694  0.251770614874836  1.0000
  H   H8        1.0  0.7297756546703627  0.6419935167167026  0.2482284059949293  1.0000
  H   H9        1.0  0.898748691634097  0.3702760392035176  0.8245196521599709  1.0000
  H   H10       1.0  0.3987435180484625  0.629728741115386  0.6754760498585738  1.0000
  H   H11       1.0  0.10125611463778482  0.6297196062820234  0.17547576393566544  1.0000
  H   H12       1.0  0.6012595944955168  0.37028481408826497  0.3245219977768059  1.0000
  H   H13       1.0  0.6878241073867956  0.9969555138879966  0.9718995980847183  1.0000
  H   H14       1.0  0.18782387708314022  0.003047970713112102  0.5280985035007788  1.0000
  H   H15       1.0  0.31217392398728094  0.0030473902418748  0.0280979526143028  1.0000
  H   H16       1.0  0.8121741542951639  0.9969586538459156  0.4719011548743594  1.0000
  H   H17       1.0  0.6792052998094108  0.833594707870091  0.025398058830724296  1.0000
  H   H18       1.0  0.17920763157923858  0.16640965480696926  0.47460015002477  1.0000
  H   H19       1.0  0.3207910378417935  0.1664046580497285  0.9745994649393452  1.0000
  H   H20       1.0  0.8207870123478358  0.8335969333104886  0.5253990922001961  1.0000
  C   C1        1.0  0.17601904421752582  0.9520732337955097  0.8565630207056927  1.0000
  C   C2        1.0  0.6760184139949459  0.04793726859747951  0.6434342977441005  1.0000
  C   C3        1.0  0.8239857620453251  0.04794194473818441  0.1434333757963415  1.0000
  C   C4        1.0  0.3239762299253854  0.9520763230548965  0.35656416603910657  1.0000
  C   C5        1.0  0.3795743773583169  0.7881254511892948  0.848822276620311  1.0000
  C   C6        1.0  0.8795837548241963  0.2118691385237881  0.6511779146357739  1.0000
  C   C7        1.0  0.6204270414777326  0.21187240072723773  0.1511781467329456  1.0000
  C   C8        1.0  0.12042274518407942  0.7881376318046025  0.3488234083390438  1.0000
  C   C9        1.0  0.49771492875218853  0.784604757322434  0.7985061675192497  1.0000
  C   C10       1.0  0.9977172031183486  0.21538848800912552  0.7014934422886796  1.0000
  C   C11       1.0  0.5022847963586656  0.215391289045968  0.20149382621986692  1.0000
  C   C12       1.0  0.0022768054982336  0.784611700412917  0.2985063795705614  1.0000
  C   C13       1.0  0.6826291058336835  0.6372624602147711  0.7879719624241872  1.0000
  C   C14       1.0  0.1826397319578419  0.3627359784423875  0.7120290097514257  1.0000
  C   C15       1.0  0.31736892555493773  0.3627354645910473  0.21202929322739547  1.0000
  C   C16       1.0  0.8173718492289624  0.6372690956646353  0.2879731320590935  1.0000
  C   C17       1.0  0.7534541285531517  0.48990870456787416  0.8292698703651665  1.0000
  C   C18       1.0  0.2534473796841965  0.5100893934606178  0.6707282169215601  1.0000
  C   C19       1.0  0.24655237145004355  0.5100871231347385  0.17072762647829617  1.0000
  C   C20       1.0  0.7465472642472979  0.48991192378385057  0.3292714010599695  1.0000
  C   C21       1.0  0.6370987594719324  0.4977081301382357  0.8792064151174798  1.0000
  C   C22       1.0  0.13710187348212347  0.5022885944039217  0.6207945254887903  1.0000
  C   C23       1.0  0.36290265936495564  0.5022861471236058  0.1207935651576619  1.0000
  C   C24       1.0  0.862904626530572  0.4977129050514647  0.3792071732425981  1.0000
  C   C25       1.0  0.6964555918765428  0.34837994214162643  0.9270692226231034  1.0000
  C   C26       1.0  0.1964616125241392  0.6516167107148262  0.5729317415848953  1.0000
  C   C27       1.0  0.30354074578583834  0.6516179462215987  0.0729316168786482  1.0000
  C   C28       1.0  0.80354150003879  0.348375797440454  0.42706822522627147  1.0000
  N   N1        1.0  0.45434069284548445  0.6421099438652291  0.8886860465816894  1.0000
  N   N2        1.0  0.9543343995851361  0.357877406254282  0.6113132882432311  1.0000
  N   N3        1.0  0.5456708883398209  0.35788249139770306  0.11131308793216732  1.0000
  N   N4        1.0  0.045660244355197215  0.6421133692441999  0.38868708125144746  1.0000
  O   O1        1.0  0.36962073126856865  0.6365555202175133  0.939927027972992  1.0000
  O   O2        1.0  0.8696191951244501  0.3634408870721161  0.5600735889370156  1.0000
  O   O3        1.0  0.6303857687403253  0.36344586990703204  0.0600734223098982  1.0000
  O   O4        1.0  0.1303822237156211  0.6365588797244185  0.4399285124785521  1.0000
  O   O5        1.0  0.018319835710521204  0.9023844568964279  0.8909484007089503  1.0000
  O   O6        1.0  0.5183257061522327  0.0976178277382544  0.6090537815110508  1.0000
  O   O7        1.0  0.9816765019566989  0.09761177169210812  0.1090536737769909  1.0000
  O   O8        1.0  0.4816740189645472  0.902385586601241  0.3909495952812989  1.0000
  O   O9        1.0  0.17123299476811132  0.12223056575310663  0.8257448983775221  1.0000
  O   O10       1.0  0.671229836153941  0.8777539160489952  0.6742580422971116  1.0000
  O   O11       1.0  0.8287684240841673  0.8777551575299893  0.17425834377207386  1.0000
  O   O12       1.0  0.3287580328980653  0.12223899299528539  0.32574650215551765  1.0000
  O   O13       1.0  0.5762825472754899  0.1680652759658727  0.9331817259094635  1.0000
  O   O14       1.0  0.07628491980809571  0.8319241904956767  0.5668162236115037  1.0000
  O   O15       1.0  0.4237188715603325  0.8319199735501924  0.0668161062966348  1.0000
  O   O16       1.0  0.9237215802037471  0.1680700867630947  0.43318375666464703  1.0000
  O   O17       1.0  0.8685313304985769  0.40927033840389254  0.9571041021282625  1.0000
  O   O18       1.0  0.36854401537068066  0.5907333652766483  0.5428990651056509  1.0000
  O   O19       1.0  0.13144806991926575  0.5907402981444889  0.04290099311528191  1.0000
  O   O20       1.0  0.6314489348381259  0.40925542245560825  0.45709879402738807  1.0000
  O   O21       1.0  0.7838178046418562  0.9084874610471375  0.9995259877767211  1.0000
  O   O22       1.0  0.2838189877275853  0.0915177496163935  0.5004729977408715  1.0000
  O   O23       1.0  0.21618192046183543  0.09151197775786811  0.00047236829301770025  1.0000
  O   O24       1.0  0.716173962476198  0.9084924860440183  0.4995275198608695  1.0000
