data_image0
_chemical_formula_structural       Al6H46C82S2O36
_chemical_formula_sum              "Al6 H46 C82 S2 O36"
_cell_length_a       12.12248461336196
_cell_length_b       12.332801560427578
_cell_length_c       28.00396333841879
_cell_angle_alpha    89.2419664572935
_cell_angle_beta     89.68311335932042
_cell_angle_gamma    118.97957606489477

_space_group_name_H-M_alt    "P 1"
_space_group_IT_number       1

loop_
  _space_group_symop_operation_xyz
  'x, y, z'

loop_
  _atom_site_type_symbol
  _atom_site_label
  _atom_site_symmetry_multiplicity
  _atom_site_fract_x
  _atom_site_fract_y
  _atom_site_fract_z
  _atom_site_occupancy
  Al  Al1       1.0  0.8046120813782379  0.4004834777115819  0.505743411356363  1.0000
  Al  Al2       1.0  0.067040501641685  0.6563771285071879  0.5030598924417831  1.0000
  Al  Al3       1.0  0.07612084857205291  0.4169914411664876  0.502940024805639  1.0000
  Al  Al4       1.0  0.8428824780422345  0.910613287209294  0.015405926152702407  1.0000
  Al  Al5       1.0  0.5869383865243092  0.9264986574486329  0.018858231372540505  1.0000
  Al  Al6       1.0  0.5680398905362124  0.6733922190527935  0.0191790257572393  1.0000
  H   H1        1.0  0.48242361768095765  0.8387911259659119  0.7009386100209767  1.0000
  H   H2        1.0  0.6322448931844918  0.46287141826937267  0.8004975347446788  1.0000
  H   H3        1.0  0.9773969429061892  0.8093981271172977  0.8154913618594719  1.0000
  H   H4        1.0  0.24379057546918395  0.7978798599229864  0.3828283491697775  1.0000
  H   H5        1.0  0.23664542869629193  0.4957521356898482  0.2224587328619947  1.0000
  H   H6        1.0  0.28236705272296797  0.5186535940505904  0.1350573319602617  1.0000
  H   H7        1.0  0.48770158343666037  0.8874516211972152  0.2384539014015203  1.0000
  H   H8        1.0  0.518957400292926  0.9112776541489254  0.1509979794621543  1.0000
  H   H9        1.0  0.3581322315120658  0.5186534678844268  0.29579037884100506  1.0000
  H   H10       1.0  0.5238407161074503  0.8754833120670256  0.7873294468974308  1.0000
  H   H11       1.0  0.3042212924354643  0.48313682141734654  0.3825912671697651  1.0000
  H   H12       1.0  0.07178155519989815  0.28788837048035987  0.37015032279355614  1.0000
  H   H13       1.0  0.6785287251467196  0.19569108830574322  0.2249770764927419  1.0000
  H   H14       1.0  0.6508780850214322  0.14425965893113363  0.138778054748542  1.0000
  H   H15       1.0  0.03888345958162621  0.23089912550916122  0.284469304101215  1.0000
  H   H16       1.0  0.9580872220044936  0.0755118372782135  0.2332531807407108  1.0000
  H   H17       1.0  0.9318785092847576  0.02838533312939259  0.1464824858320242  1.0000
  H   H18       1.0  0.6438442640443967  0.11994854656022372  0.3011464958935335  1.0000
  H   H19       1.0  0.6809361072913089  0.18565354630246844  0.3858289121951657  1.0000
  H   H20       1.0  0.7302411127596214  0.44239914312769474  0.3771934953929232  1.0000
  H   H21       1.0  0.1823706022865678  0.5335014597423324  0.8196003422332154  1.0000
  H   H22       1.0  0.0010187962594797343  0.7872065427707254  0.22034305544131166  1.0000
  H   H23       1.0  0.6967030090304148  0.46376745169118283  0.2905203966404315  1.0000
  H   H24       1.0  0.5999211911059701  0.5541619879423932  0.24007181799908042  1.0000
  H   H25       1.0  0.5712252983365005  0.5681358193305996  0.15251684515245503  1.0000
  H   H26       1.0  0.9456507898297843  0.857111278162719  0.29696741317529535  1.0000
  H   H27       1.0  0.9842573416438681  0.833444963296053  0.38352877466466145  1.0000
  H   H28       1.0  0.9552344249419563  0.06906489412757816  0.7125564296386244  1.0000
  H   H29       1.0  0.928103312581264  0.0433123475474346  0.8009734212793589  1.0000
  H   H30       1.0  0.6673391806474456  0.18719848173001455  0.7972727474342064  1.0000
  H   H31       1.0  0.6929832163276402  0.2112730541384025  0.7084814324967182  1.0000
  H   H32       1.0  0.6745178243362842  0.47125220423084363  0.7125760080643032  1.0000
  H   H33       1.0  0.09088596026768403  0.7275014492453876  0.6860977970709001  1.0000
  H   H34       1.0  0.18536639616780082  0.8003573580925407  0.7369238551907175  1.0000
  H   H35       1.0  0.269446863405065  0.007748055468454098  0.6942429129434586  1.0000
  H   H36       1.0  0.2980777869558579  0.9024719010947067  0.6601634463413505  1.0000
  H   H37       1.0  0.1733838526763093  0.9318534209369604  0.6441467747439517  1.0000
  H   H38       1.0  0.10536203808425866  0.8361518256310347  0.3221672471919774  1.0000
  H   H39       1.0  0.14832308560657712  0.8379610338533324  0.1624709137874873  1.0000
  H   H40       1.0  0.10577471554174159  0.9570884365576476  0.166442739062326  1.0000
  H   H41       1.0  0.1450177619775133  0.9942210698143443  0.07576680399655801  1.0000
  H   H42       1.0  0.2847618689927812  0.027282210211239995  0.10876117711507051  1.0000
  H   H43       1.0  0.2037405313624203  0.8876568054158225  0.076215868892433  1.0000
  H   H44       1.0  0.9534905055034885  0.5021555991412259  0.7203616390950813  1.0000
  H   H45       1.0  0.5964956616266974  0.3404719595224249  0.4845810905067651  1.0000
  H   H46       1.0  0.0472635422496808  0.024006972845846502  0.9839123557935565  1.0000
  C   C1        1.0  0.8911730936140642  0.6147413017026366  0.5732690193095564  1.0000
  C   C2        1.0  0.24873788234108918  0.6009457765777242  0.793937893823717  1.0000
  C   C3        1.0  0.22657719544897492  0.5808555239686157  0.7454499513879824  1.0000
  C   C4        1.0  0.3105696780626132  0.665242793501335  0.7105241406709767  1.0000
  C   C5        1.0  0.3566279654450353  0.7069678620899253  0.809872389396368  1.0000
  C   C6        1.0  0.3790163982005195  0.72229859269801  0.8595646496489735  1.0000
  C   C7        1.0  0.28719798280378933  0.6474772871195925  0.6609760452761436  1.0000
  C   C8        1.0  0.3957899343475189  0.7283842723222165  0.902543439234563  1.0000
  C   C9        1.0  0.869243736860376  0.1991237438150435  0.6135600439438207  1.0000
  C   C10       1.0  0.890528907040888  0.09223962808375318  0.7311950244009539  1.0000
  C   C11       1.0  0.8758617410445877  0.0785537206532894  0.780384341842705  1.0000
  C   C12       1.0  0.21295247943648105  0.6076368294533053  0.571084569568896  1.0000
  C   C13       1.0  0.728351456736064  0.15971699803345976  0.7783139263501084  1.0000
  C   C14       1.0  0.7424672660915305  0.17293472170027968  0.7290892058896149  1.0000
  C   C15       1.0  0.8251294467965451  0.1410545355985846  0.7049076348824741  1.0000
  C   C16       1.0  0.79591997525592  0.11348801322052539  0.804746373498361  1.0000
  C   C17       1.0  0.7852550088029274  0.1028504470015577  0.8550851755785231  1.0000
  C   C18       1.0  0.8474854584066873  0.16723576057049164  0.655447937074733  1.0000
  C   C19       1.0  0.7774488028886071  0.0916377919823432  0.8984869987816708  1.0000
  C   C20       1.0  0.8755431246335446  0.6429693179597109  0.6215377942804635  1.0000
  C   C21       1.0  0.740463303154385  0.5435267817222353  0.7358230060794497  1.0000
  C   C22       1.0  0.716758421033596  0.5390412356964377  0.7844512953368223  1.0000
  C   C23       1.0  0.8961604436931336  0.2620301006655196  0.5681253811587297  1.0000
  C   C24       1.0  0.9111529299336991  0.7349319457084675  0.7931274195699984  1.0000
  C   C25       1.0  0.9356313739115903  0.7397102679239679  0.7443434224923707  1.0000
  C   C26       1.0  0.8486787551774596  0.6439291722908037  0.7146445026817149  1.0000
  C   C27       1.0  0.8013917124529896  0.6358872869914622  0.8135549256461019  1.0000
  C   C28       1.0  0.7766530357102536  0.638598575478376  0.8627514821656136  1.0000
  C   C29       1.0  0.8660181116767304  0.6477966031392838  0.6646987551935482  1.0000
  C   C30       1.0  0.7596054776539061  0.6516321226620505  0.9046886087701012  1.0000
  C   C31       1.0  0.27292356884489516  0.6401112472043238  0.3882527022048308  1.0000
  C   C32       1.0  0.2711124931109976  0.7384761326350925  0.3635628633816951  1.0000
  C   C33       1.0  0.2970643821316513  0.7556410544578185  0.31469906511460977  1.0000
  C   C34       1.0  0.8870534818831927  0.6165662745988457  0.43541951649127253  1.0000
  C   C35       1.0  0.3291895683016008  0.6766678811856154  0.28875628132175285  1.0000
  C   C36       1.0  0.33230731030339894  0.5797886687101367  0.3148354117668645  1.0000
  C   C37       1.0  0.3039417712514946  0.560465196241921  0.3634598821350394  1.0000
  C   C38       1.0  0.3012146027113757  0.5866334668199186  0.2070022340412692  1.0000
  C   C39       1.0  0.32445433537478136  0.5993028346846784  0.1579095413706142  1.0000
  C   C40       1.0  0.45749263455927996  0.8204842417827436  0.16693080146166753  1.0000
  C   C41       1.0  0.4389348915778653  0.8067197490136307  0.2160613592345086  1.0000
  C   C42       1.0  0.35702953129925397  0.6903651083064871  0.2367578462090378  1.0000
  C   C43       1.0  0.4003021117558844  0.7172131139302422  0.1374194171591796  1.0000
  C   C44       1.0  0.8784427126058602  0.2405567022487105  0.38299174839670513  1.0000
  C   C45       1.0  0.22530975214274912  0.6138540363152316  0.4384425367809044  1.0000
  C   C46       1.0  0.9785840188278739  0.25072389213151786  0.3545576899200357  1.0000
  C   C47       1.0  0.9592743623293101  0.21779920401739616  0.306829434712462  1.0000
  C   C48       1.0  0.8393002755419089  0.17187671034158566  0.2864095380717728  1.0000
  C   C49       1.0  0.7385555639727384  0.1589626467284333  0.3156683242883034  1.0000
  C   C50       1.0  0.75817163893678  0.19395748732136303  0.36318489338260923  1.0000
  C   C51       1.0  0.7338289118305568  0.15823042210126204  0.2081182055640056  1.0000
  C   C52       1.0  0.7187045004515084  0.13064403107762254  0.1598025653357311  1.0000
  C   C53       1.0  0.8782143055696068  0.0663391509440814  0.1642280558431892  1.0000
  C   C54       1.0  0.8926320296301213  0.09351708611537649  0.21249426253432802  1.0000
  C   C55       1.0  0.8212093079190481  0.14038286975845438  0.23536016813422123  1.0000
  C   C56       1.0  0.9007134100550188  0.2876020532169574  0.4325187939850466  1.0000
  C   C57       1.0  0.7908531092877311  0.0845502880890692  0.137473695159855  1.0000
  C   C58       1.0  0.860633510906851  0.6361323586197402  0.38520503134909495  1.0000
  C   C59       1.0  0.7769204612134075  0.5327944317088934  0.3592145901197341  1.0000
  C   C60       1.0  0.7581525028430818  0.5453661987677664  0.31096586439874596  1.0000
  C   C61       1.0  0.8210759582637978  0.6613385900692635  0.2874584125371982  1.0000
  C   C62       1.0  0.901859702543504  0.765599136513515  0.31427349547601585  1.0000
  C   C63       1.0  0.9221685501943923  0.7531105031583962  0.362562452698775  1.0000
  C   C64       1.0  0.9064903564798783  0.7420372301152153  0.20570547052608396  1.0000
  C   C65       1.0  0.8908631959386568  0.7472776461438074  0.1561957331364994  1.0000
  C   C66       1.0  0.6650290275873444  0.6142486084366467  0.16783294342796753  1.0000
  C   C67       1.0  0.26417886740649965  0.6337875923519078  0.6184778386553447  1.0000
  C   C68       1.0  0.681192884373864  0.606773334455262  0.2165518701586535  1.0000
  C   C69       1.0  0.802628059716902  0.6714900858175383  0.2358522278753057  1.0000
  C   C70       1.0  0.7675048570280295  0.683915370772894  0.1368761114823442  1.0000
  C   C71       1.0  0.76108275179962  0.052737722264033886  0.9477794739047313  1.0000
  C   C72       1.0  0.4378323408048599  0.741493761858102  0.951208492798358  1.0000
  C   C73       1.0  0.7418399988508567  0.6922702081113313  0.9505275898133548  1.0000
  C   C74       1.0  0.7698030174170113  0.044454425504547083  0.08699365005642079  1.0000
  C   C75       1.0  0.43358544386932596  0.7368788097285303  0.0857005855176496  1.0000
  C   C76       1.0  0.7424438100041257  0.6998971802835215  0.0863050027944539  1.0000
  C   C77       1.0  0.4173574226869262  0.7718305482168051  0.7270902418194396  1.0000
  C   C78       1.0  0.44029665595721906  0.7926403480491969  0.7755963768002516  1.0000
  C   C79       1.0  0.13615853818931353  0.8138744964550284  0.7063037905199252  1.0000
  C   C80       1.0  0.2243518546620462  0.9209202758027571  0.6744538651719908  1.0000
  C   C81       1.0  0.11206558986654588  0.8905226566364843  0.1420654672032029  1.0000
  C   C82       1.0  0.1912640625724719  0.9543013936468087  0.0980704878407792  1.0000
  S   S1        1.0  0.27698586322492225  0.8747886364064426  0.28544486872630875  1.0000
  S   S2        1.0  0.09029458699117734  0.4407381393837466  0.7297730290798229  1.0000
  O   O1        1.0  0.8154249797839839  0.2904203745005701  0.5529131971741563  1.0000
  O   O2        1.0  0.19684392244639054  0.6907533236468736  0.45764276164511136  1.0000
  O   O3        1.0  0.20764061901100905  0.5124757765414714  0.4582065255449734  1.0000
  O   O4        1.0  0.006296586407884777  0.3105153035792513  0.4518816233312748  1.0000
  O   O5        1.0  0.9855909225848406  0.4933971016432535  0.503585609266473  1.0000
  O   O6        1.0  0.8225969816319391  0.801147627846582  0.9612679439007437  1.0000
  O   O7        1.0  0.8408849136654197  0.02583492609163329  0.9651498705891087  1.0000
  O   O8        1.0  0.6623736094969034  0.0427205958940107  0.969748592103464  1.0000
  O   O9        1.0  0.4588726954890986  0.8402900850967328  0.9725567613479384  1.0000
  O   O10       1.0  0.45669822404605726  0.6550435683785591  0.9679403504120927  1.0000
  O   O11       1.0  0.6438025656337771  0.6172779979502607  0.9755446051388431  1.0000
  O   O12       1.0  0.8148836780664295  0.5073418448901348  0.5595511052849034  1.0000
  O   O13       1.0  0.826305906155653  0.7870784227636206  0.06135260650771811  1.0000
  O   O14       1.0  0.8430259837488449  0.010117148599349  0.0688712789030745  1.0000
  O   O15       1.0  0.6742609622287715  0.04208209034919721  0.0655691867790367  1.0000
  O   O16       1.0  0.4662832817692786  0.8446524629491277  0.0679987904338333  1.0000
  O   O17       1.0  0.4362272203774109  0.6491897751667395  0.0626655207026943  1.0000
  O   O18       1.0  0.6300831565671173  0.6255227743950655  0.0709413130968386  1.0000
  O   O19       1.0  0.6626254518749375  0.8359774216372529  0.0170408445897507  1.0000
  O   O20       1.0  0.9849205839673517  0.6994182849233612  0.5486989851795272  1.0000
  O   O21       1.0  0.18754802360304967  0.687662958156821  0.5520152119700228  1.0000
  O   O22       1.0  0.19128781811172493  0.504901287128817  0.5530547500102116  1.0000
  O   O23       1.0  0.0021550181862579677  0.2889623761456406  0.5473139672588516  1.0000
  O   O24       1.0  0.8172003897351414  0.3064197335073189  0.4518172896082504  1.0000
  O   O25       1.0  0.8074836546409685  0.5188649339097324  0.4568991518737562  1.0000
  O   O26       1.0  0.9931108378140933  0.6984432532749453  0.4528959651984295  1.0000
  O   O27       1.0  0.03985372596249446  0.8401369937298641  0.7256575997886686  1.0000
  O   O28       1.0  0.39506969093574884  0.9881352197896971  0.2825579876653066  1.0000
  O   O29       1.0  0.2015233832848933  0.8231301529442019  0.2437053136724643  1.0000
  O   O30       1.0  0.1949356706826818  0.9016146900365242  0.3236658151572768  1.0000
  O   O31       1.0  0.9871210111463213  0.8072154142336957  0.1252408229576929  1.0000
  O   O32       1.0  0.1270077520041183  0.3757342717382314  0.6969426640138182  1.0000
  O   O33       1.0  0.021205144199477312  0.3841080189750698  0.7732719795289782  1.0000
  O   O34       1.0  0.009497641030932804  0.488224129143063  0.6988197616660158  1.0000
  O   O35       1.0  0.6394189784467271  0.31754920571727746  0.5082955498457126  1.0000
  O   O36       1.0  0.008472186219492462  0.9823329957225582  0.013770938735191902  1.0000
