data_image0
_chemical_formula_structural       Na2Yb2H32C56O20
_chemical_formula_sum              "Na2 Yb2 H32 C56 O20"
_cell_length_a       7.225945814111604
_cell_length_b       15.417581446004021
_cell_length_c       15.417590589915447
_cell_angle_alpha    122.04984534340063
_cell_angle_beta     89.99939206837335
_cell_angle_gamma    90.00021253076808

_space_group_name_H-M_alt    "P 1"
_space_group_IT_number       1

loop_
  _space_group_symop_operation_xyz
  'x, y, z'

loop_
  _atom_site_type_symbol
  _atom_site_label
  _atom_site_symmetry_multiplicity
  _atom_site_fract_x
  _atom_site_fract_y
  _atom_site_fract_z
  _atom_site_occupancy
  Na  Na1       1.0  0.7030687640062256  0.6322411497294524  0.632240407685039  1.0000
  Na  Na2       1.0  0.20308077607356978  0.3677541513110682  0.367758023341402  1.0000
  Yb  Yb1       1.0  0.2080526291429052  0.6278181585737526  0.62781605035628  1.0000
  Yb  Yb2       1.0  0.7080568527376697  0.37218330886172174  0.37218745500613437  1.0000
  H   H1        1.0  0.1713729933346571  0.6914570088823098  0.9642493929339436  1.0000
  H   H2        1.0  0.6714132150527091  0.30853803497221594  0.03576658603878259  1.0000
  H   H3        1.0  0.6713911962769501  0.03575093328477409  0.3085411978580481  1.0000
  H   H4        1.0  0.17138947675563537  0.9642465453096916  0.6914526703036328  1.0000
  H   H5        1.0  0.7318363092455086  0.6706745378080469  0.8623263176725399  1.0000
  H   H6        1.0  0.2318849329975876  0.3293069397983786  0.137664247512717  1.0000
  H   H7        1.0  0.231847505462504  0.13767490026194906  0.3293143157444689  1.0000
  H   H8        1.0  0.7318502103320624  0.8623342753818547  0.6706962535072447  1.0000
  H   H9        1.0  0.2859748971453158  0.7123335946086442  0.12794459252523885  1.0000
  H   H10       1.0  0.7859896143979342  0.2876733933802171  0.8720710680624036  1.0000
  H   H11       1.0  0.7859968601529205  0.8720594150675608  0.28767114341959393  1.0000
  H   H12       1.0  0.28598841014553494  0.1279371234756965  0.7123203586459397  1.0000
  H   H13       1.0  0.8476145245325242  0.6988165739698287  0.028958595310846977  1.0000
  H   H14       1.0  0.3476459574416139  0.3011677873874348  0.9710315533161591  1.0000
  H   H15       1.0  0.347633706729809  0.9710487353747224  0.301175178560072  1.0000
  H   H16       1.0  0.8476336945624752  0.028965027829109098  0.6988423331679172  1.0000
  H   H17       1.0  0.541546096425229  0.8234664554367654  0.3712808593779541  1.0000
  H   H18       1.0  0.0415619955047291  0.17653587657819972  0.6287200494531077  1.0000
  H   H19       1.0  0.04156728910439259  0.6287210485364341  0.17651857718769284  1.0000
  H   H20       1.0  0.5415643292508249  0.37128867332219073  0.8234763791572348  1.0000
  H   H21       1.0  0.5788414572551659  0.5284290138398118  0.09181952125212686  1.0000
  H   H22       1.0  0.07883818751777479  0.47157400284135775  0.9081802489313943  1.0000
  H   H23       1.0  0.0788446348105865  0.9081696393574318  0.47156843811192317  1.0000
  H   H24       1.0  0.5788405455756161  0.09183412499293547  0.528431065644817  1.0000
  H   H25       1.0  0.4280232981078953  0.7405087226299686  0.46350044057493983  1.0000
  H   H26       1.0  0.9280230559620789  0.25948640734497264  0.5365006418751506  1.0000
  H   H27       1.0  0.9280354502117518  0.5364936928410984  0.2594633221725219  1.0000
  H   H28       1.0  0.42803304643616263  0.46351021808217746  0.740527329001793  1.0000
  H   H29       1.0  0.4827474836423846  0.44539285343159196  0.18724153666217788  1.0000
  H   H30       1.0  0.9827322955792397  0.5546058958196268  0.8127559258602728  1.0000
  H   H31       1.0  0.9827582501006233  0.8127384490332973  0.5545958753247646  1.0000
  H   H32       1.0  0.4827547427847917  0.18726177816920847  0.44540039661842457  1.0000
  C   C1        1.0  0.37343676416423216  0.6655526408336809  0.8064789457717794  1.0000
  C   C2        1.0  0.8734833909628749  0.3344472678109511  0.19352940182243114  1.0000
  C   C3        1.0  0.8734259539306706  0.19352370642161526  0.3344501337038466  1.0000
  C   C4        1.0  0.373437461325608  0.8064767067005433  0.6655487403749729  1.0000
  C   C5        1.0  0.44420018644763803  0.6788625306785859  0.9032650869080425  1.0000
  C   C6        1.0  0.9442516139955616  0.3211266328328292  0.09673934890830076  1.0000
  C   C7        1.0  0.9442123189808099  0.0967387812124301  0.32113430983192603  1.0000
  C   C8        1.0  0.4442145713174597  0.9032638751678304  0.6788666459847545  1.0000
  C   C9        1.0  0.3189604364129933  0.6902417515388066  0.9780731901748326  1.0000
  C   C10       1.0  0.818991284643161  0.30975137311911993  0.021933265032586698  1.0000
  C   C11       1.0  0.8189787310095865  0.021926456172877792  0.3097557459027059  1.0000
  C   C12       1.0  0.3189757579708968  0.9780747538933239  0.6902425174814935  1.0000
  C   C13       1.0  0.6348532393825648  0.6801619688693207  0.9209180163493684  1.0000
  C   C14       1.0  0.13489062797967216  0.31982267024935146  0.07907401433548236  1.0000
  C   C15       1.0  0.1348649304157803  0.07908379404394587  0.3198305154486292  1.0000
  C   C16       1.0  0.6348650978685697  0.9209245962605904  0.6801749593852264  1.0000
  C   C17       1.0  0.38186053578633755  0.7015557584591364  0.06864431419369052  1.0000
  C   C18       1.0  0.8818892500706212  0.2984419489897974  0.9313667571928903  1.0000
  C   C19       1.0  0.8818819894630536  0.931360047688031  0.2984442579563975  1.0000
  C   C20       1.0  0.38187886777266294  0.06863802520849299  0.7015520784237735  1.0000
  C   C21       1.0  0.6999274461494237  0.6947939347570582  0.01284146678632668  1.0000
  C   C22       1.0  0.1999627057364961  0.3051914418875441  0.9871525536483148  1.0000
  C   C23       1.0  0.1999450980317903  0.9871625088614164  0.305198579536281  1.0000
  C   C24       1.0  0.6999450537893139  0.012845871288007495  0.694809151418383  1.0000
  C   C25       1.0  0.5724388696921494  0.70530810530812  0.08607247072057334  1.0000
  C   C26       1.0  0.072453521706592  0.2946865384375883  0.9139243478189057  1.0000
  C   C27       1.0  0.07245851413662048  0.9139286131530184  0.29468952623111727  1.0000
  C   C28       1.0  0.5724504840716663  0.08607672385490159  0.7053121121144841  1.0000
  C   C29       1.0  0.563259189429715  0.6804788793243047  0.22674549904646554  1.0000
  C   C30       1.0  0.0632605205892531  0.3195234261256417  0.7732552848705369  1.0000
  C   C31       1.0  0.06326860476839609  0.7732504766498494  0.31951128671089885  1.0000
  C   C32       1.0  0.5632580247987278  0.22675401969294734  0.680486724967686  1.0000
  C   C33       1.0  0.5230268548347609  0.7408378585369488  0.3310597982467128  1.0000
  C   C34       1.0  0.023032799842638996  0.2591622357578984  0.6689413587593336  1.0000
  C   C35       1.0  0.023038851109475893  0.6689413221811475  0.2591489757060399  1.0000
  C   C36       1.0  0.5230332587652171  0.33106543166510255  0.7408471529185691  1.0000
  C   C37       1.0  0.5435263270009398  0.5740881034291476  0.17289239920290098  1.0000
  C   C38       1.0  0.0435231174961572  0.42591191366200587  0.827106666871785  1.0000
  C   C39       1.0  0.04353319359461239  0.8270984199942717  0.4259058853583753  1.0000
  C   C40       1.0  0.5435245543367201  0.17290458778213494  0.5740921150490195  1.0000
  C   C41       1.0  0.46027446975765673  0.6943938399332552  0.3822580541360806  1.0000
  C   C42       1.0  0.9602727831939432  0.3056049715607898  0.6177408530007041  1.0000
  C   C43       1.0  0.9602884638672293  0.6177324512539855  0.30558266411672  1.0000
  C   C44       1.0  0.4602823154938563  0.3822707420198271  0.6944106985153411  1.0000
  C   C45       1.0  0.4883521746692522  0.5283297282490834  0.22559026363662563  1.0000
  C   C46       1.0  0.9883399775851912  0.4716705442331842  0.7744079491252336  1.0000
  C   C47       1.0  0.9883610549854964  0.7743929733655506  0.4716546410748066  1.0000
  C   C48       1.0  0.48835185582299795  0.2256087597020695  0.5283417234816454  1.0000
  C   C49       1.0  0.44445941254069504  0.5877926846135466  0.330240441529412  1.0000
  C   C50       1.0  0.9444518434330363  0.4122045987737906  0.6697571164736047  1.0000
  C   C51       1.0  0.9444736375076203  0.669749055838629  0.41219032325900423  1.0000
  C   C52       1.0  0.4444611448325018  0.33025271356981284  0.5878056362112075  1.0000
  C   C53       1.0  0.39419254497204287  0.5335143652183517  0.38288056625975025  1.0000
  C   C54       1.0  0.8941837749903598  0.466483744735811  0.6171176722770184  1.0000
  C   C55       1.0  0.894191535183708  0.6170993983683388  0.46645876026459376  1.0000
  C   C56       1.0  0.39418478481744756  0.38290090248290903  0.5335367060536598  1.0000
  O   O1        1.0  0.2065051345737103  0.6895629138699488  0.80095858694186  1.0000
  O   O2        1.0  0.7065639147922481  0.3104258102450431  0.19904814082968866  1.0000
  O   O3        1.0  0.7064861551740264  0.19903998152717148  0.3104524883672468  1.0000
  O   O4        1.0  0.2065081634845569  0.8009594185323792  0.6895584018112614  1.0000
  O   O5        1.0  0.4790900918024406  0.6274189823873613  0.7279296546243188  1.0000
  O   O6        1.0  0.9791338897949727  0.37260277480873333  0.2720815392962379  1.0000
  O   O7        1.0  0.9790784335558059  0.27207267652086387  0.3725716398201299  1.0000
  O   O8        1.0  0.479092959975695  0.7279272598237652  0.6274134729942487  1.0000
  O   O9        1.0  0.6403764322675158  0.7277217762093712  0.179790680358934  1.0000
  O   O10       1.0  0.1403915974616083  0.2722811651498986  0.8202087356459202  1.0000
  O   O11       1.0  0.140401072526906  0.8202136129172429  0.27227974795037097  1.0000
  O   O12       1.0  0.6403877157232074  0.17979315366001455  0.7277216242504281  1.0000
  O   O13       1.0  0.2927033792859817  0.5753668567530709  0.46258689376433887  1.0000
  O   O14       1.0  0.7926877484468804  0.4246313947880793  0.5374125865108539  1.0000
  O   O15       1.0  0.7926907979763057  0.537405931652067  0.4246099111272413  1.0000
  O   O16       1.0  0.29268787468268437  0.46259602351251056  0.5753869218055598  1.0000
  O   O17       1.0  0.455114782869245  0.4416811259046155  0.3417109825283403  1.0000
  O   O18       1.0  0.955104410381331  0.5583153272768726  0.6582841499254002  1.0000
  O   O19       1.0  0.9551141901484071  0.6582601655987543  0.5582946846117736  1.0000
  O   O20       1.0  0.45510915481354886  0.341737035252784  0.4417001814191721  1.0000
