data_image0
_chemical_formula_structural       Ag4H16C32O8F28
_chemical_formula_sum              "Ag4 H16 C32 O8 F28"
_cell_length_a       9.683596005709946
_cell_length_b       9.935006601328682
_cell_length_c       15.050301147451526
_cell_angle_alpha    105.1177744844382
_cell_angle_beta     93.54451913030411
_cell_angle_gamma    117.57329176481952

_space_group_name_H-M_alt    "P 1"
_space_group_IT_number       1

loop_
  _space_group_symop_operation_xyz
  'x, y, z'

loop_
  _atom_site_type_symbol
  _atom_site_label
  _atom_site_symmetry_multiplicity
  _atom_site_fract_x
  _atom_site_fract_y
  _atom_site_fract_z
  _atom_site_occupancy
  Ag  Ag1       1.0  0.11369158977235119  0.04006813764042499  0.40663982249851943  1.0000
  Ag  Ag2       1.0  0.8863076981876856  0.9599305573435328  0.5933603132315215  1.0000
  Ag  Ag3       1.0  0.39322202734655326  0.0190912577324909  0.4007042163481459  1.0000
  Ag  Ag4       1.0  0.606776837932884  0.9809086665403581  0.59929345943484  1.0000
  H   H1        1.0  0.2596567804142111  0.25681022560539185  0.31953061754795453  1.0000
  H   H2        1.0  0.7403420777675221  0.7431896866685647  0.6804683847472293  1.0000
  H   H3        1.0  0.5168852668428343  0.2640979217136632  0.3363030487687838  1.0000
  H   H4        1.0  0.48311255140936277  0.7359019822437458  0.6636972392198006  1.0000
  H   H5        1.0  0.5681185383545254  0.3991330927062434  0.6379986122158101  1.0000
  H   H6        1.0  0.43187809153487683  0.6008644140330758  0.3620005447244169  1.0000
  H   H7        1.0  0.3082526915840873  0.39044472312856016  0.6215964741037683  1.0000
  H   H8        1.0  0.6917455670929726  0.6095539815371894  0.37840295755138004  1.0000
  H   H9        1.0  0.07284956510498829  0.3650933225540242  0.5100520354645683  1.0000
  H   H10       1.0  0.9271488526518821  0.6349077890115922  0.4899478231640445  1.0000
  H   H11       1.0  0.09125122126234683  0.3556807341690272  0.39260663938605245  1.0000
  H   H12       1.0  0.908748832379878  0.6443215873219115  0.6073921674452906  1.0000
  H   H13       1.0  0.7715233069481258  0.3604430888982505  0.43509058348316654  1.0000
  H   H14       1.0  0.2284765734188809  0.6395568016950223  0.5649104493991006  1.0000
  H   H15       1.0  0.7844601042819049  0.36868860160492284  0.5546179998959107  1.0000
  H   H16       1.0  0.215539498288905  0.6313149011793442  0.4453836530371549  1.0000
  C   C1        1.0  0.3158410039105561  0.27104676766322905  0.3891417769901509  1.0000
  C   C2        1.0  0.6841584431292914  0.728954334220603  0.6108587857133544  1.0000
  C   C3        1.0  0.46612905306603386  0.2749174316653579  0.39895364851506804  1.0000
  C   C4        1.0  0.5338698051156995  0.7250824806086057  0.6010453537801156  1.0000
  C   C5        1.0  0.5662756431671525  0.3402289826690889  0.48900536928653804  1.0000
  C   C6        1.0  0.43372440337737567  0.6597733268229575  0.510994764057003  1.0000
  C   C7        1.0  0.4983599318770401  0.36439902899329  0.5680514041303228  1.0000
  C   C8        1.0  0.5016393596318451  0.6355996719901142  0.4319480683436226  1.0000
  C   C9        1.0  0.3527575753956  0.3594694021518876  0.5590213223319582  1.0000
  C   C10       1.0  0.6472412721395739  0.6405304921237371  0.4409796697315117  1.0000
  C   C11       1.0  0.2661850858746532  0.3300491372407208  0.469953735975139  1.0000
  C   C12       1.0  0.7338159935017003  0.6699531685689806  0.5300464381871921  1.0000
  C   C13       1.0  0.1590009912644277  0.40138583595746263  0.4650255204300963  1.0000
  C   C14       1.0  0.8409978633684503  0.5986140703170476  0.5349741451211829  1.0000
  C   C15       1.0  0.7438332944483151  0.4076404113999955  0.5016797413340799  1.0000
  C   C16       1.0  0.2561651162108518  0.5923606881667282  0.4983214438067308  1.0000
  C   C17       1.0  0.07119878161658726  0.703291972102356  0.3107058968748292  1.0000
  C   C18       1.0  0.9288056740514606  0.29670671046935126  0.6892937796930669  1.0000
  C   C19       1.0  0.9685473227310197  0.520426037389143  0.2536869313283106  1.0000
  C   C20       1.0  0.03145403444153057  0.47957265622958534  0.746312622783215  1.0000
  C   C21       1.0  0.8948064827942588  0.4931849321379146  0.1508362919129738  1.0000
  C   C22       1.0  0.10519324204178551  0.5068125575549373  0.8491636507397261  1.0000
  C   C23       1.0  0.8485654824791737  0.3280157255918112  0.07688901078235236  1.0000
  C   C24       1.0  0.1514385434105705  0.6719841742698948  0.9231095323506797  1.0000
  C   C25       1.0  0.2559770554534281  0.9907144916430891  0.5994086538484142  1.0000
  C   C26       1.0  0.7440209289762905  0.009287831213086396  0.400590734601444  1.0000
  C   C27       1.0  0.27010553601845533  0.9987878938817828  0.7054442996918697  1.0000
  C   C28       1.0  0.7298949474020802  0.001213210319150399  0.29455564057432343  1.0000
  C   C29       1.0  0.37760192779230556  0.1745014104036783  0.7737210365046893  1.0000
  C   C30       1.0  0.622400187964736  0.8255008977231312  0.22627851522033648  1.0000
  C   C31       1.0  0.3802789984074408  0.20435974385765118  0.8812565616925314  1.0000
  C   C32       1.0  0.6197231067030415  0.7956425462708265  0.11874497980078057  1.0000
  O   O1        1.0  0.990944905018772  0.7732646118908377  0.32781662569505715  1.0000
  O   O2        1.0  0.009049031311477086  0.22673164660937317  0.6721881850163457  1.0000
  O   O3        1.0  0.21894368728010954  0.7563741487915151  0.3308953957483072  1.0000
  O   O4        1.0  0.7810531229822145  0.24362580084436294  0.6691002086288054  1.0000
  O   O5        1.0  0.13175205629028133  0.9802808848710071  0.5595582547896643  1.0000
  O   O6        1.0  0.8682487452898755  0.019725033129681397  0.4404425394234651  1.0000
  O   O7        1.0  0.3732551574056159  0.9984904505579734  0.5644704708984422  1.0000
  O   O8        1.0  0.6267410391566344  0.0015082674718982982  0.43552821586302326  1.0000
  F   F1        1.0  0.8466113154254913  0.44657133489280904  0.2971955406025445  1.0000
  F   F2        1.0  0.15338972358743058  0.5534225449261639  0.7028031595620451  1.0000
  F   F3        1.0  0.057908620335304195  0.44547158329184794  0.24999476434931725  1.0000
  F   F4        1.0  0.9420954055544397  0.5545283165698577  0.7500037787837146  1.0000
  F   F5        1.0  0.7604216658437861  0.5057962782594172  0.15072762064776413  1.0000
  F   F6        1.0  0.23957463878828378  0.49419640268126125  0.8492720088577247  1.0000
  F   F7        1.0  0.0036228419534296828  0.6114350161749796  0.12115104651091001  1.0000
  F   F8        1.0  0.9963743838917976  0.38856369217310766  0.8788483443254481  1.0000
  F   F9        1.0  0.7667679066090116  0.31137904814576706  0.9949119510542135  1.0000
  F   F10       1.0  0.23323182177588803  0.6886184475465311  0.005087328342384  1.0000
  F   F11       1.0  0.7542902832956243  0.20693482714687408  0.10822310504509862  1.0000
  F   F12       1.0  0.2457150567709973  0.7930614628409527  0.8917741955998226  1.0000
  F   F13       1.0  0.9788135829148954  0.3165325048958748  0.06014182947309621  1.0000
  F   F14       1.0  0.021192237940020633  0.6834710117910275  0.9398560888361377  1.0000
  F   F15       1.0  0.3343577643549551  0.907033559149653  0.7213222984695167  1.0000
  F   F16       1.0  0.6656427226144288  0.09296755105073369  0.278676978540581  1.0000
  F   F17       1.0  0.12218608053083801  0.9373045447183584  0.727651854386949  1.0000
  F   F18       1.0  0.8778147210493189  0.0627013732823301  0.27234893982618064  1.0000
  F   F19       1.0  0.5311641976069197  0.2252825949393582  0.7631860677234814  1.0000
  F   F20       1.0  0.46883834437957  0.7747184898980064  0.23681528069249685  1.0000
  F   F21       1.0  0.3278637938364781  0.26958590019155787  0.7474987290371191  1.0000
  F   F22       1.0  0.6721426052300005  0.7304187881068742  0.25250273944872964  1.0000
  F   F23       1.0  0.42581102941930726  0.11171873961521327  0.9119323165973585  1.0000
  F   F24       1.0  0.5741894540012281  0.8882823645857271  0.08806762366884163  1.0000
  F   F25       1.0  0.4864155556034645  0.3606141068793178  0.9289902386254031  1.0000
  F   F26       1.0  0.5135880227637131  0.6393869802751553  0.07101048735326296  1.0000
  F   F27       1.0  0.2357371921743336  0.17285682075517877  0.9000313155740118  1.0000
  F   F28       1.0  0.7642655159896774  0.8271466829809595  0.09996913330323311  1.0000
