data_image0
_chemical_formula_structural       Cu4H16C28N28
_chemical_formula_sum              "Cu4 H16 C28 N28"
_cell_length_a       7.944586367328248
_cell_length_b       9.259850743394264
_cell_length_c       12.723892562875362
_cell_angle_alpha    90.00105706772146
_cell_angle_beta     97.36802568239993
_cell_angle_gamma    90.00016435947734

_space_group_name_H-M_alt    "P 1"
_space_group_IT_number       1

loop_
  _space_group_symop_operation_xyz
  'x, y, z'

loop_
  _atom_site_type_symbol
  _atom_site_label
  _atom_site_symmetry_multiplicity
  _atom_site_fract_x
  _atom_site_fract_y
  _atom_site_fract_z
  _atom_site_occupancy
  Cu  Cu1       1.0  0.18270631038429735  0.3487660886714466  0.32604518931741205  1.0000
  Cu  Cu2       1.0  0.682715822790058  0.15123127052233795  0.8260392110928051  1.0000
  Cu  Cu3       1.0  0.8172967452878053  0.6512321179048753  0.6739558463618494  1.0000
  Cu  Cu4       1.0  0.31728680947982457  0.8487669359705239  0.17395550876841528  1.0000
  H   H1        1.0  0.24689136914989965  0.6300398579139712  0.4273580079889143  1.0000
  H   H2        1.0  0.7468835916326096  0.8699580952515832  0.9273610371869978  1.0000
  H   H3        1.0  0.7531116865098111  0.3699540289382952  0.5726430276613854  1.0000
  H   H4        1.0  0.2530996508482345  0.13003903144552  0.0726460035175123  1.0000
  H   H5        1.0  0.6664937563477265  0.17101284632648367  0.4527860849315744  1.0000
  H   H6        1.0  0.16650110406402516  0.3289780758574707  0.9527938861224996  1.0000
  H   H7        1.0  0.3334954031735576  0.8289734809901786  0.5472149837145963  1.0000
  H   H8        1.0  0.8335027984001186  0.671015811161709  0.04721978116388931  1.0000
  H   H9        1.0  0.45259374058415597  0.13606732763585674  0.4726389442880005  1.0000
  H   H10       1.0  0.9525972354852569  0.36393245493078297  0.9726409325995036  1.0000
  H   H11       1.0  0.5473877045460894  0.8639287190232778  0.5273601328702782  1.0000
  H   H12       1.0  0.04739953266017237  0.6360733111599117  0.027360548775582996  1.0000
  H   H13       1.0  0.4976479780547719  0.19499001542047267  0.3469395029106508  1.0000
  H   H14       1.0  0.9976624418094102  0.30500335110858146  0.8469397408342232  1.0000
  H   H15       1.0  0.5023397546331337  0.8050092710344288  0.6530591286242355  1.0000
  H   H16       1.0  0.0023520796405235985  0.6949948555018466  0.1530627032201295  1.0000
  C   C1        1.0  0.36148234200980756  0.5732749574429548  0.46067031072909254  1.0000
  C   C2        1.0  0.8614748373243585  0.9267263422554067  0.9606733118197184  1.0000
  C   C3        1.0  0.6385181245382581  0.4267200093246331  0.5393297979183416  1.0000
  C   C4        1.0  0.13851231530671973  0.07327618412552542  0.0393355141747946  1.0000
  C   C5        1.0  0.5154932131176506  0.35981500242913  0.4667040781842857  1.0000
  C   C6        1.0  0.015503493392550593  0.14018343295068553  0.9667127113644796  1.0000
  C   C7        1.0  0.4844919304648128  0.640187523803121  0.5332936263622159  1.0000
  C   C8        1.0  0.9844976612058217  0.8598190934696175  0.03329766053796852  1.0000
  C   C9        1.0  0.5350024923275781  0.20732616214253596  0.4325745173553202  1.0000
  C   C10       1.0  0.035008204791637396  0.29266603095868504  0.9325793943118156  1.0000
  C   C11       1.0  0.4649866142994127  0.7926709644738282  0.567425761886021  1.0000
  C   C12       1.0  0.9649940061817613  0.7073300158364332  0.0674278884045805  1.0000
  C   C13       1.0  0.0815101827562259  0.17771282293248453  0.5199912107607929  1.0000
  C   C14       1.0  0.5815014315685897  0.3222956666314687  0.01998924835466198  1.0000
  C   C15       1.0  0.9185082488284517  0.8222853837067063  0.4800130185473463  1.0000
  C   C16       1.0  0.4184955461722166  0.6777122591152391  0.9799965122562214  1.0000
  C   C17       1.0  0.8954029774109099  0.16734037604871332  0.21071149737325356  1.0000
  C   C18       1.0  0.39543475544044765  0.3326502162696841  0.710706512556122  1.0000
  C   C19       1.0  0.10458010630030397  0.8326589104791252  0.789293174913972  1.0000
  C   C20       1.0  0.604580504839049  0.6673436705150025  0.28928810546313594  1.0000
  C   C21       1.0  0.6302998822841841  0.0562168098288254  0.17539602265539858  1.0000
  C   C22       1.0  0.13032241789218793  0.443781852384781  0.6753959255688358  1.0000
  C   C23       1.0  0.3696765963579835  0.9437932759438397  0.8246043584858427  1.0000
  C   C24       1.0  0.8696956432124449  0.5562152742503699  0.32460277739127713  1.0000
  C   C25       1.0  0.9278820157598274  0.11430977859091479  0.6565232139077821  1.0000
  C   C26       1.0  0.42786890881627215  0.3856816397628364  0.1565106023073497  1.0000
  C   C27       1.0  0.07214434193558357  0.8856851883336107  0.34348616484072636  1.0000
  C   C28       1.0  0.5721283335106333  0.6143122469328547  0.8434791055956622  1.0000
  N   N1        1.0  0.3771434507984991  0.4371168601831672  0.42893978064923743  1.0000
  N   N2        1.0  0.8771482306410402  0.0628858895675535  0.9289449740449313  1.0000
  N   N3        1.0  0.6228440701975868  0.5628856660230428  0.5710556929983497  1.0000
  N   N4        1.0  0.12284769281497888  0.9371209565349831  0.0710627543890183  1.0000
  N   N5        1.0  0.12383930153379906  0.2332235831820952  0.4444475003570858  1.0000
  N   N6        1.0  0.6238422918702464  0.266791842200945  0.9444489751627997  1.0000
  N   N7        1.0  0.8761661844803041  0.7667757033096408  0.5555520939077638  1.0000
  N   N8        1.0  0.3761598111778425  0.7332171634977344  0.05553784999828789  1.0000
  N   N9        1.0  0.004175621950508898  0.25443473761328056  0.22747342135080117  1.0000
  N   N10       1.0  0.5041943406396355  0.24556170769712793  0.7274660317755348  1.0000
  N   N11       1.0  0.9958251621709164  0.7455677887340002  0.7725314242108537  1.0000
  N   N12       1.0  0.4958103515076998  0.754441898362174  0.2725217203594497  1.0000
  N   N13       1.0  0.793248358416548  0.0632237248785472  0.1830572711093197  1.0000
  N   N14       1.0  0.29326768255206287  0.43678530184755715  0.6830474688535588  1.0000
  N   N15       1.0  0.20674376076458142  0.9367863610091405  0.8169502510470749  1.0000
  N   N16       1.0  0.7067325723041973  0.563212904671339  0.3169494819065761  1.0000
  N   N17       1.0  0.4823115378089822  0.0358943183819065  0.16412364141120858  1.0000
  N   N18       1.0  0.982311856199537  0.46410608750542803  0.664127556454396  1.0000
  N   N19       1.0  0.517683644708647  0.9641179272296441  0.8358730343773715  1.0000
  N   N20       1.0  0.017689613832374097  0.5358942788676944  0.3358686736093972  1.0000
  N   N21       1.0  0.8179977166678893  0.1089355189720962  0.7103842624576728  1.0000
  N   N22       1.0  0.31798844482421623  0.39104729408457223  0.2103719291799422  1.0000
  N   N23       1.0  0.18202473088969376  0.8910583679926635  0.2896233310298015  1.0000
  N   N24       1.0  0.6820155613444709  0.6089347134665816  0.7896244382935861  1.0000
  N   N25       1.0  0.05425305730732789  0.10639306980532841  0.6029030087540264  1.0000
  N   N26       1.0  0.554218665430241  0.3936024023142721  0.10289036428902419  1.0000
  N   N27       1.0  0.9457809618910314  0.8936051369384542  0.39710757209201825  1.0000
  N   N28       1.0  0.4457692768778257  0.6064076832447542  0.8970925465395965  1.0000
