data_image0
_chemical_formula_structural       Cu4H16C24N20
_chemical_formula_sum              "Cu4 H16 C24 N20"
_cell_length_a       4.9426155298270436
_cell_length_b       9.939636296271887
_cell_length_c       17.057281896438134
_cell_angle_alpha    90.00032870405508
_cell_angle_beta     90.0001564129298
_cell_angle_gamma    103.39004477022822

_space_group_name_H-M_alt    "P 1"
_space_group_IT_number       1

loop_
  _space_group_symop_operation_xyz
  'x, y, z'

loop_
  _atom_site_type_symbol
  _atom_site_label
  _atom_site_symmetry_multiplicity
  _atom_site_fract_x
  _atom_site_fract_y
  _atom_site_fract_z
  _atom_site_occupancy
  Cu  Cu1       1.0  0.6530357389088551  0.41427697938128455  0.4341656857902052  1.0000
  Cu  Cu2       1.0  0.3469621838955064  0.08573306703064529  0.9341578545786575  1.0000
  Cu  Cu3       1.0  0.3469541214442629  0.5857298154519197  0.5658407745538909  1.0000
  Cu  Cu4       1.0  0.6530497734673304  0.9142727713912037  0.0658445017960148  1.0000
  H   H1        1.0  0.017612744434941898  0.7191095697367728  0.0775610867274423  1.0000
  H   H2        1.0  0.982404704787534  0.780902680328573  0.5775652043086198  1.0000
  H   H3        1.0  0.9824144847703024  0.2809000579208031  0.9224371656312158  1.0000
  H   H4        1.0  0.017564757239384193  0.21911124625383133  0.4224389110040789  1.0000
  H   H5        1.0  0.2569295403226307  0.6223218275713335  0.1862063601411563  1.0000
  H   H6        1.0  0.743095779044829  0.8776850150904211  0.6862159824919019  1.0000
  H   H7        1.0  0.7430907348001625  0.3776773060320052  0.8137872024113832  1.0000
  H   H8        1.0  0.256882724874707  0.12231005693048756  0.313797513303264  1.0000
  H   H9        1.0  0.8757243760478134  0.8543517182867075  0.3491242255941883  1.0000
  H   H10       1.0  0.12427728202023763  0.6456437558864109  0.8491349092178949  1.0000
  H   H11       1.0  0.12427395608359153  0.145634161138176  0.6508664061050524  1.0000
  H   H12       1.0  0.8756993141267557  0.35433700443524413  0.1508615853545976  1.0000
  H   H13       1.0  0.652193844356347  0.9426757001101502  0.23410753507940288  1.0000
  H   H14       1.0  0.34778237215099483  0.5573111101495839  0.7341143626199695  1.0000
  H   H15       1.0  0.3478124465084775  0.057309551245531096  0.7658866141309133  1.0000
  H   H16       1.0  0.6521579092856343  0.44267803872849504  0.2658803732773762  1.0000
  C   C1        1.0  0.21537609262782104  0.6737655938339201  0.3410561856735512  1.0000
  C   C2        1.0  0.784648124855835  0.8262449057477425  0.841059110369109  1.0000
  C   C3        1.0  0.7846452387187809  0.3262447624363957  0.6589420667153192  1.0000
  C   C4        1.0  0.21533728049063683  0.17373831486816727  0.158945591722393  1.0000
  C   C5        1.0  0.9922937780906127  0.7463792971143661  0.1386430448546392  1.0000
  C   C6        1.0  0.007716456268454365  0.7536282609174731  0.6386504249117165  1.0000
  C   C7        1.0  0.007721732239950523  0.2536246823708908  0.8613505176333334  1.0000
  C   C8        1.0  0.9922618909677255  0.2463810200469253  0.3613513453901049  1.0000
  C   C9        1.0  0.12502669772194253  0.693438094366968  0.1988409630134456  1.0000
  C   C10       1.0  0.8750095257043925  0.8065753838967353  0.6988521114710836  1.0000
  C   C11       1.0  0.874990950992256  0.30655888067560966  0.8011561171637211  1.0000
  C   C12       1.0  0.1250053432491285  0.19343364358645224  0.3011602112324425  1.0000
  C   C13       1.0  0.08598075894275327  0.7312756855926918  0.2766230887183241  1.0000
  C   C14       1.0  0.9140480228084302  0.7687327426440048  0.7766305272001972  1.0000
  C   C15       1.0  0.9140292140547858  0.2687229466820397  0.7233687151444314  1.0000
  C   C16       1.0  0.08596828841412217  0.23125198164903074  0.2233759334013783  1.0000
  C   C17       1.0  0.9140608630049346  0.8231541911127066  0.2897276626329344  1.0000
  C   C18       1.0  0.08594521826362472  0.676849158654285  0.7897382190061252  1.0000
  C   C19       1.0  0.0859350486421846  0.17683766415782284  0.7102676590390827  1.0000
  C   C20       1.0  0.9140764238679467  0.3231327781341875  0.2102653103132468  1.0000
  C   C21       1.0  0.7886136627871281  0.8716242033558996  0.2264396897422856  1.0000
  C   C22       1.0  0.211372454049048  0.6283608331389274  0.7264456494893707  1.0000
  C   C23       1.0  0.2113813990601869  0.1283645639627409  0.7735556320008214  1.0000
  C   C24       1.0  0.7885961837809462  0.3716205555091676  0.2735502588714311  1.0000
  N   N1        1.0  0.37722494144259855  0.5824419264087837  0.3309637972420774  1.0000
  N   N2        1.0  0.622809826702408  0.9175786256673102  0.8309683296629302  1.0000
  N   N3        1.0  0.6227954625953416  0.4175724468958606  0.6690344550699763  1.0000
  N   N4        1.0  0.377195100318346  0.0824238244582318  0.1690381306558848  1.0000
  N   N5        1.0  0.44534523362492723  0.551858015332769  0.40281592232568647  1.0000
  N   N6        1.0  0.5546716005178213  0.9481539866757129  0.9028202263791698  1.0000
  N   N7        1.0  0.554676303895832  0.4481604754982911  0.5971852611909725  1.0000
  N   N8        1.0  0.4453201146191931  0.05184477419172138  0.0971874066383123  1.0000
  N   N9        1.0  0.3283547569127592  0.6232297496813075  0.4555077836928874  1.0000
  N   N10       1.0  0.67164153225427  0.8767806326428197  0.9555120959714715  1.0000
  N   N11       1.0  0.6716602382908833  0.3767945158568863  0.544490468454093  1.0000
  N   N12       1.0  0.3283425078323461  0.1232197858683435  0.0444949508106234  1.0000
  N   N13       1.0  0.18373533281458518  0.70072948919573  0.41782190695646193  1.0000
  N   N14       1.0  0.8162842710209547  0.7992871049964804  0.9178272298645851  1.0000
  N   N15       1.0  0.8162932344652774  0.2992923895715122  0.5821710687969173  1.0000
  N   N16       1.0  0.1837050224658299  0.20071763099634413  0.08217688548739231  1.0000
  N   N17       1.0  0.8245239937462189  0.8342395599062511  0.1515220444985559  1.0000
  N   N18       1.0  0.1754749881206976  0.6657603932930342  0.6515299258067557  1.0000
  N   N19       1.0  0.1754839195424935  0.1657589725452056  0.8484744494611931  1.0000
  N   N20       1.0  0.8245174993072695  0.3342485605125063  0.34847770699173  1.0000
