data_image0
_chemical_formula_structural       MnH16C16N10O6
_chemical_formula_sum              "Mn1 H16 C16 N10 O6"
_cell_length_a       7.16490618054676
_cell_length_b       8.714236800841334
_cell_length_c       8.932089127106826
_cell_angle_alpha    72.83353868459413
_cell_angle_beta     67.88576706501286
_cell_angle_gamma    66.58685672799115

_space_group_name_H-M_alt    "P 1"
_space_group_IT_number       1

loop_
  _space_group_symop_operation_xyz
  'x, y, z'

loop_
  _atom_site_type_symbol
  _atom_site_label
  _atom_site_symmetry_multiplicity
  _atom_site_fract_x
  _atom_site_fract_y
  _atom_site_fract_z
  _atom_site_occupancy
  Mn  Mn1       1.0  7.226249748689158e-07  0.9999990353777688  0.9999998020213281  1.0000
  H   H1        1.0  0.5963526539419489  0.09025764296709582  0.18838443089276774  1.0000
  H   H2        1.0  0.4036467016320557  0.9097429422176332  0.8116152688296479  1.0000
  H   H3        1.0  0.7694524581669879  0.0068880930500441  0.28932853570293554  1.0000
  H   H4        1.0  0.2305477732669344  0.9931099562722635  0.7106705112717077  1.0000
  H   H5        1.0  0.06001528512003768  0.7644397166953991  0.6388069229606969  1.0000
  H   H6        1.0  0.9399887854479513  0.23556071640967247  0.36119579663807133  1.0000
  H   H7        1.0  0.17006780636896923  0.604922588609618  0.8930721009877869  1.0000
  H   H8        1.0  0.8299344055887158  0.3950741426633968  0.10692670213199305  1.0000
  H   H9        1.0  0.48634877533767434  0.15731967161599406  0.702513601223039  1.0000
  H   H10       1.0  0.5136458108635436  0.8426773085220205  0.2974875616208549  1.0000
  H   H11       1.0  0.3835604334479326  0.2976349580393247  0.44068420463118224  1.0000
  H   H12       1.0  0.6164328215209023  0.7023658262374113  0.5593173828705175  1.0000
  H   H13       1.0  0.37144361255490566  0.3821012950981029  0.020365735907056138  1.0000
  H   H14       1.0  0.6285566886490698  0.617896752843876  0.9796355289229906  1.0000
  H   H15       1.0  0.5655374125535599  0.22002914768767573  0.9083142188597577  1.0000
  H   H16       1.0  0.4344628886504153  0.7799689002543033  0.09168704597028905  1.0000
  C   C1        1.0  0.17087410125795083  0.6233421728437633  0.3629721447859778  1.0000
  C   C2        1.0  0.8291294092824868  0.3766595306080944  0.6370270199397011  1.0000
  C   C3        1.0  0.21287163108127768  0.5427111001832686  0.518533120240285  1.0000
  C   C4        1.0  0.787132984123012  0.45729182108171773  0.4814664533783171  1.0000
  C   C5        1.0  0.15112830561668725  0.6297907941837053  0.6483047602894841  1.0000
  C   C6        1.0  0.8488766951900144  0.3702108601853169  0.3516928235636667  1.0000
  C   C7        1.0  0.20769055441752463  0.5441915636132322  0.7897875413880582  1.0000
  C   C8        1.0  0.7923130956630259  0.455810137077961  0.2102160590484488  1.0000
  C   C9        1.0  0.3852088801280756  0.28878637177736277  0.681785017880962  1.0000
  C   C10       1.0  0.6147889502946382  0.7112142631803736  0.31821515378627635  1.0000
  C   C11       1.0  0.3306978907501159  0.36802453272395746  0.5396995775984407  1.0000
  C   C12       1.0  0.6693034453476513  0.631974734411479  0.46029987826911145  1.0000
  C   C13       1.0  0.39500588707871026  0.28828591874203363  0.9506121232900921  1.0000
  C   C14       1.0  0.6049939936378194  0.7117133967860808  0.04939002237770031  1.0000
  C   C15       1.0  0.29478006793946326  0.15410854848244776  0.06724977580522305  1.0000
  C   C16       1.0  0.705220233264512  0.8458894994595311  0.9327514890248236  1.0000
  N   N1        1.0  0.08100291991540576  0.790907722894964  0.31170911597966006  1.0000
  N   N2        1.0  0.9189990654737414  0.20909403032989363  0.6882905206908488  1.0000
  N   N3        1.0  0.0932019253425551  0.7985517630760767  0.15587570041306978  1.0000
  N   N4        1.0  0.9067973604613967  0.20144882348898824  0.8441217814539282  1.0000
  N   N5        1.0  0.18043663202097088  0.6417673543440044  0.1164068849874766  1.0000
  N   N6        1.0  0.8195616886592417  0.35823201164726726  0.8835946236974263  1.0000
  N   N7        1.0  0.23212951433592358  0.5317594666954263  0.24314346446045215  1.0000
  N   N8        1.0  0.767870945901933  0.46824233630243123  0.7568566441548721  1.0000
  N   N9        1.0  0.32324721379707455  0.37644094128479105  0.8050772666372763  1.0000
  N   N10       1.0  0.6767564884268821  0.6235557409053883  0.19491995560997566  1.0000
  O   O1        1.0  0.1525720367592029  0.13036901216099744  0.03348079126094208  1.0000
  O   O2        1.0  0.8474256541233983  0.8696316255573961  0.9665149446954684  1.0000
  O   O3        1.0  0.3678354703746862  0.08012807931942229  0.1878681346324312  1.0000
  O   O4        1.0  0.6321616061015689  0.9198700716193856  0.8121285294487347  1.0000
  O   O5        1.0  0.7377741422216673  0.0873937860849026  0.1920302279328181  1.0000
  O   O6        1.0  0.2622252482373709  0.9126067984096692  0.8079705807173024  1.0000
