data_image0
_chemical_formula_structural       Zn2H10C10O12
_chemical_formula_sum              "Zn2 H10 C10 O12"
_cell_length_a       7.031317386833392
_cell_length_b       7.3878410143011966
_cell_length_c       8.320830819911276
_cell_angle_alpha    90.28923557353774
_cell_angle_beta     110.6858020875785
_cell_angle_gamma    94.94643334179746

_space_group_name_H-M_alt    "P 1"
_space_group_IT_number       1

loop_
  _space_group_symop_operation_xyz
  'x, y, z'

loop_
  _atom_site_type_symbol
  _atom_site_label
  _atom_site_symmetry_multiplicity
  _atom_site_fract_x
  _atom_site_fract_y
  _atom_site_fract_z
  _atom_site_occupancy
  Zn  Zn1       1.0  0.49999804786708074  4.3432248020025694e-07  0.499998669171653  1.0000
  Zn  Zn2       1.0  1.647664047836155e-08  0.5000000227961791  0.49999916825658625  1.0000
  H   H1        1.0  0.4214237576660622  0.8103909212378609  0.05332701906031187  1.0000
  H   H2        1.0  0.5785784669271763  0.18960951091610664  0.9466750811465091  1.0000
  H   H3        1.0  0.17783286870053422  0.6494125151188613  0.2853892310549995  1.0000
  H   H4        1.0  0.8221707142743285  0.35058656879042627  0.7146096547715075  1.0000
  H   H5        1.0  0.034754165904565995  0.47627533163694113  0.19306177567393226  1.0000
  H   H6        1.0  0.9652507128688156  0.5237210572658598  0.8069386806821086  1.0000
  H   H7        1.0  0.1677715591155788  0.13727204913106314  0.43341318402644896  1.0000
  H   H8        1.0  0.8322277126491787  0.8627296946548667  0.5665856569205091  1.0000
  H   H9        1.0  0.1431652254084952  0.9260727503642696  0.477949550624885  1.0000
  H   H10       1.0  0.8568310164878313  0.07392895511717511  0.5220496098945375  1.0000
  C   C1        1.0  0.4536995539931539  0.6732608309971441  0.02845760912052242  1.0000
  C   C2        1.0  0.5463011050669166  0.32673957089337335  0.9715404296011768  1.0000
  C   C3        1.0  0.42165254980013595  0.6134766432718236  0.860758337920231  1.0000
  C   C4        1.0  0.5783466160109897  0.3865237442283983  0.13924166970399196  1.0000
  C   C5        1.0  0.46775627724785823  0.4375576868275601  0.8316917959849589  1.0000
  C   C6        1.0  0.5322460388421818  0.5624440984374884  0.16830793146706927  1.0000
  C   C7        1.0  0.4281758153834475  0.3515470689567906  0.6579546315278861  1.0000
  C   C8        1.0  0.5718248870471568  0.6484533424576212  0.34204702542640314  1.0000
  C   C9        1.0  0.3572019040133227  0.7494877058939124  0.7221023457180065  1.0000
  C   C10       1.0  0.6427957540920063  0.2505126640413877  0.27789842473121956  1.0000
  O   O1        1.0  0.4924561079749454  0.8741402331450702  0.7247406886247347  1.0000
  O   O2        1.0  0.5075402977023985  0.125862841320604  0.27526212952754037  1.0000
  O   O3        1.0  0.17252890907626295  0.7372892260948591  0.6147123494611932  1.0000
  O   O4        1.0  0.8274685082080923  0.26270842491975793  0.3852883421875006  1.0000
  O   O5        1.0  0.5666918744468674  0.2610585744189251  0.6413073058065349  1.0000
  O   O6        1.0  0.4333087075732465  0.7389404775351452  0.35869431174749167  1.0000
  O   O7        1.0  0.25568521004618827  0.35938664231461104  0.537885621969572  1.0000
  O   O8        1.0  0.7443153575170881  0.6406124064648253  0.46211478950691987  1.0000
  O   O9        1.0  0.038455089449975305  0.5859672463499167  0.2598130693347401  1.0000
  O   O10       1.0  0.9615468509517628  0.4140304573594804  0.7401853338389658  1.0000
  O   O11       1.0  0.1837985135858915  0.011801490202749699  0.4016578823174797  1.0000
  O   O12       1.0  0.8161992504730692  0.9882002360182512  0.5983417214544743  1.0000
