data_image0
_chemical_formula_structural       Zn2H36C52N4O12
_chemical_formula_sum              "Zn2 H36 C52 N4 O12"
_cell_length_a       9.819247708209685
_cell_length_b       11.19960202015886
_cell_length_c       28.098626503427543
_cell_angle_alpha    90.14553491667168
_cell_angle_beta     101.79932640632067
_cell_angle_gamma    94.76742545478679

_space_group_name_H-M_alt    "P 1"
_space_group_IT_number       1

loop_
  _space_group_symop_operation_xyz
  'x, y, z'

loop_
  _atom_site_type_symbol
  _atom_site_label
  _atom_site_symmetry_multiplicity
  _atom_site_fract_x
  _atom_site_fract_y
  _atom_site_fract_z
  _atom_site_occupancy
  Zn  Zn1       1.0  0.6409856699174838  0.4855594603541535  0.5112298031147375  1.0000
  Zn  Zn2       1.0  0.3601028203656825  0.5151947057186421  0.487550308414491  1.0000
  H   H1        1.0  0.7021907756497967  0.8986181009446812  0.5061124870865116  1.0000
  H   H2        1.0  0.7274711078973509  0.760041238170928  0.1357248051122184  1.0000
  H   H3        1.0  0.6259618909427829  0.3554018739240093  0.3546828322720544  1.0000
  H   H4        1.0  0.36031146022393296  0.6442613218681998  0.6374421699123829  1.0000
  H   H5        1.0  0.6191989409188848  0.3551689907572212  0.2650919503526268  1.0000
  H   H6        1.0  0.3523893683834842  0.6578779001688491  0.7257174355743174  1.0000
  H   H7        1.0  0.2677576217584772  0.27426124430056126  0.10814954402459162  1.0000
  H   H8        1.0  0.669666907128935  0.7774669649908078  0.8871913077679352  1.0000
  H   H9        1.0  0.2573403858795444  0.2694719257337965  0.0194080222965098  1.0000
  H   H10       1.0  0.6810863701208376  0.7813879120197101  0.9759892040397915  1.0000
  H   H11       1.0  0.2712326342457629  0.2566031627869166  0.9511615291152254  1.0000
  H   H12       1.0  0.2958909854578168  0.10231750681877834  0.4797984045750141  1.0000
  H   H13       1.0  0.7154619873557307  0.7658137720552602  0.0469393114548851  1.0000
  H   H14       1.0  0.38094725863452794  0.8952629944279311  0.48207266355066747  1.0000
  H   H15       1.0  0.6165873211344463  0.10655469756883214  0.49601218784048484  1.0000
  H   H16       1.0  0.6689719271959831  0.14215607977526906  0.5918424892115439  1.0000
  H   H17       1.0  0.667120623843104  0.06914068709551201  0.647878727911035  1.0000
  H   H18       1.0  0.5280957274960371  0.03673916311922911  0.5970425014000895  1.0000
  H   H19       1.0  0.45277788525061885  0.17514262833299205  0.6555309416365915  1.0000
  H   H20       1.0  0.4597427009602697  0.248360353238482  0.6004823350352313  1.0000
  H   H21       1.0  0.6974615415158213  0.34547577071061414  0.6375363128677165  1.0000
  H   H22       1.0  0.6907575274501171  0.2710632440611533  0.6927732461852756  1.0000
  H   H23       1.0  0.8772329666726079  0.5688378881153187  0.4682578543863372  1.0000
  H   H24       1.0  0.1980583287592808  0.8735716329264919  0.3544599049332575  1.0000
  H   H25       1.0  0.06040028522261308  0.7702097775695479  0.3644184280841571  1.0000
  H   H26       1.0  0.22158561968632276  0.7878869795387546  0.4079708105245459  1.0000
  H   H27       1.0  0.1816949721704262  0.6812458722356639  0.30405663081337764  1.0000
  H   H28       1.0  0.2092300838590333  0.598306245907864  0.35803237209884037  1.0000
  H   H29       1.0  0.43997573658587186  0.7201375870088429  0.3865098662913553  1.0000
  H   H30       1.0  0.4155629092403145  0.7918789459863833  0.3298638604021917  1.0000
  H   H31       1.0  0.12348249641978978  0.4334272896454437  0.5301250702814997  1.0000
  H   H32       1.0  0.8993428326661643  0.40396323449859756  0.5496548211505683  1.0000
  H   H33       1.0  0.10336820093382931  0.5995553705213016  0.4490577835165936  1.0000
  H   H34       1.0  0.5948306274564672  0.353470149529855  0.7518665553815964  1.0000
  H   H35       1.0  0.4099446361001853  0.6793290481277057  0.2535556881826935  1.0000
  H   H36       1.0  0.2697381577173914  0.25620949872109133  0.8630392542428994  1.0000
  C   C1        1.0  0.4334875557041896  0.2695440300615602  0.491361318334782  1.0000
  C   C2        1.0  0.41396958856635274  0.4285911744006443  0.12147135545060911  1.0000
  C   C3        1.0  0.4860307954879772  0.49451513691814614  0.6455274195051288  1.0000
  C   C4        1.0  0.5159316771934569  0.5140954042152333  0.3535883642026221  1.0000
  C   C5        1.0  0.4027681364379915  0.42548633004984987  0.0196830864375173  1.0000
  C   C6        1.0  0.5564139399395742  0.613334493474149  0.9768828788063788  1.0000
  C   C7        1.0  0.5666292331952718  0.6108284310493348  0.029565127760037096  1.0000
  C   C8        1.0  0.4011887581637906  0.4229306230141818  0.9674932996457529  1.0000
  C   C9        1.0  0.4877197468153939  0.5180829439263948  0.04965854316264991  1.0000
  C   C10       1.0  0.47673279060690277  0.5176658300404782  0.9472145819872252  1.0000
  C   C11       1.0  0.3245690945160575  0.3397190860867668  0.04153371849002241  1.0000
  C   C12       1.0  0.5637155646657063  0.7320561434334255  0.500622821714785  1.0000
  C   C13       1.0  0.6227763880150335  0.7060034199679707  0.9543634947793508  1.0000
  C   C14       1.0  0.32937715462239947  0.3412741555740341  0.0915497817344288  1.0000
  C   C15       1.0  0.6168960441853172  0.7051741583634554  0.9042659040190202  1.0000
  C   C16       1.0  0.49042256326632133  0.49663779140394865  0.5923814138784138  1.0000
  C   C17       1.0  0.5155039482969671  0.5052531123420962  0.4067923740103367  1.0000
  C   C18       1.0  0.32815201301311697  0.3304608467279807  0.9365109788255381  1.0000
  C   C19       1.0  0.6520530860101985  0.6958897434464718  0.06125414519684111  1.0000
  C   C20       1.0  0.40509032645147874  0.13789354506327106  0.48591143084802724  1.0000
  C   C21       1.0  0.592729873357193  0.8634875772673852  0.49853894017689276  1.0000
  C   C22       1.0  0.5095262832512829  0.06497566724515023  0.48984732413312326  1.0000
  C   C23       1.0  0.47279400408508104  0.5165618607476717  0.8960015912772976  1.0000
  C   C24       1.0  0.48817036931099267  0.9366595876841121  0.4889722667226977  1.0000
  C   C25       1.0  0.07491072859815522  0.49285026773278434  0.5017461440108875  1.0000
  C   C26       1.0  0.9263313462489933  0.5100361294530915  0.49676557291679296  1.0000
  C   C27       1.0  0.394397848495359  0.4164253965127999  0.8132724563713225  1.0000
  C   C28       1.0  0.5912941590916887  0.6068577278119989  0.1848613448973211  1.0000
  C   C29       1.0  0.5446196189456387  0.6104628617429314  0.8223393083372984  1.0000
  C   C30       1.0  0.4173863458742346  0.4271464548534001  0.1743534958335928  1.0000
  C   C31       1.0  0.4069712397302965  0.588689966257718  0.7120305498449185  1.0000
  C   C32       1.0  0.574457851296401  0.4253489116084524  0.2823096790492343  1.0000
  C   C33       1.0  0.41243187431646794  0.5812325920355266  0.6630155194477111  1.0000
  C   C34       1.0  0.4942885595160647  0.5177078398573585  0.1010312589805196  1.0000
  C   C35       1.0  0.5773006319723564  0.4254443996972129  0.3319984388568074  1.0000
  C   C36       1.0  0.5537493411408859  0.4106319232207556  0.6775371265784429  1.0000
  C   C37       1.0  0.4545940543933468  0.6076646631834067  0.3257894773495806  1.0000
  C   C38       1.0  0.5452010283912117  0.41819847843218844  0.726537354913532  1.0000
  C   C39       1.0  0.4546289084633345  0.6072210296963407  0.2759733356466683  1.0000
  C   C40       1.0  0.47405021992111074  0.5062487694835485  0.7435922570576422  1.0000
  C   C41       1.0  0.5120438697419516  0.5166748240321296  0.2545971228459294  1.0000
  C   C42       1.0  0.6267142666090422  0.3100580556796403  0.6607511911300749  1.0000
  C   C43       1.0  0.5248482719592076  0.21011812438569424  0.6325149425099426  1.0000
  C   C44       1.0  0.6012259615673088  0.10876405995177413  0.6164878058647574  1.0000
  C   C45       1.0  0.3976224155942844  0.42097758288929316  0.8661553954839006  1.0000
  C   C46       1.0  0.391591113759624  0.7074704829244923  0.34774108634416473  1.0000
  C   C47       1.0  0.23249862814446226  0.6862888896419721  0.3428630019573262  1.0000
  C   C48       1.0  0.1745290596829747  0.7845630035673852  0.3688212654543293  1.0000
  C   C49       1.0  0.5813264087612282  0.6062919771880005  0.13157464787531836  1.0000
  C   C50       1.0  0.3264660210349176  0.32905839286353006  0.8866919222381641  1.0000
  C   C51       1.0  0.6599863290661004  0.6936287897553799  0.1114454167794747  1.0000
  C   C52       1.0  0.5442822790796314  0.610889916236552  0.875021129200249  1.0000
  N   N1        1.0  0.47056156808008603  0.51140791504443  0.7946912133531967  1.0000
  N   N2        1.0  0.5067507539319535  0.5172024939685613  0.2028840864260673  1.0000
  N   N3        1.0  0.152271328394761  0.5439662088352506  0.4749264695122122  1.0000
  N   N4        1.0  0.8494102228469983  0.4588129568546152  0.5237292174223995  1.0000
  O   O1        1.0  0.5611514773908155  0.31189839643951  0.499936157823619  1.0000
  O   O2        1.0  0.668492271685821  0.680817850845891  0.2124448613853929  1.0000
  O   O3        1.0  0.3465728612096867  0.3523448361420734  0.1929823199801177  1.0000
  O   O4        1.0  0.6068883785061274  0.6906741440980542  0.8032639301925713  1.0000
  O   O5        1.0  0.4357672718816517  0.6904841953290559  0.4918342580315453  1.0000
  O   O6        1.0  0.32778600039443256  0.33078098726429783  0.48758615706636027  1.0000
  O   O7        1.0  0.6690043251510713  0.6701698384156745  0.5111905416475793  1.0000
  O   O8        1.0  0.6073504415676396  0.4844453796935184  0.5807087067854013  1.0000
  O   O9        1.0  0.3971646419135196  0.5066674136601322  0.4186504590297915  1.0000
  O   O10       1.0  0.3768245025137773  0.5132217399993381  0.5628079403834434  1.0000
  O   O11       1.0  0.6317891359791687  0.49541031186543455  0.4357442273726448  1.0000
  O   O12       1.0  0.32988043030127295  0.3346194800834398  0.7864600563386547  1.0000
