data_image0
_chemical_formula_structural       Zn2H12C34N10O12
_chemical_formula_sum              "Zn2 H12 C34 N10 O12"
_cell_length_a       10.992889056090348
_cell_length_b       13.145422829353132
_cell_length_c       14.312439732850818
_cell_angle_alpha    89.83406122032227
_cell_angle_beta     89.88529577895187
_cell_angle_gamma    89.32222083116012

_space_group_name_H-M_alt    "P 1"
_space_group_IT_number       1

loop_
  _space_group_symop_operation_xyz
  'x, y, z'

loop_
  _atom_site_type_symbol
  _atom_site_label
  _atom_site_symmetry_multiplicity
  _atom_site_fract_x
  _atom_site_fract_y
  _atom_site_fract_z
  _atom_site_occupancy
  Zn  Zn1       1.0  0.49995654995875327  0.39128085183656935  0.5086272031883752  1.0000
  Zn  Zn2       1.0  0.5005287310576135  0.6059965264848799  0.49501690471536364  1.0000
  H   H1        1.0  0.2160036983330471  0.669905066906239  0.7646599233220713  1.0000
  H   H2        1.0  0.9052045753460971  0.8241095957496753  0.5637566552981854  1.0000
  H   H3        1.0  0.9472110451020936  0.7600771834819186  0.6702783292997836  1.0000
  H   H4        1.0  0.7919078035526397  0.7965691956678996  0.6505871959252192  1.0000
  H   H5        1.0  0.28598120809639477  0.6937212900782941  0.652991523117386  1.0000
  H   H6        1.0  0.26955454579484683  0.5662976930455201  0.6961752584067611  1.0000
  H   H7        1.0  0.10592218525847129  0.8274109204025564  0.4576054589690061  1.0000
  H   H8        1.0  0.23807896065481055  0.7541748417913396  0.49014639275895894  1.0000
  H   H9        1.0  0.13846755255035958  0.806094583579906  0.5788914429791987  1.0000
  H   H10       1.0  0.7288062568853488  0.6026462696737411  0.6965047807432827  1.0000
  H   H11       1.0  0.8337511446705292  0.6413737993485001  0.7852987624268979  1.0000
  H   H12       1.0  0.786624251539038  0.5112674071786572  0.77930155098705  1.0000
  C   C1        1.0  0.49674573267418504  0.4867562449994126  0.32508928516753605  1.0000
  C   C2        1.0  0.7344321146888784  0.49809654867797093  0.510704033166178  1.0000
  C   C3        1.0  0.49929638005052357  0.5067492135643692  0.6809254699560938  1.0000
  C   C4        1.0  0.07507329067408358  0.41087594772241703  0.5760253388890462  1.0000
  C   C5        1.0  0.07212105454961908  0.5072744960333395  0.4177993376977938  1.0000
  C   C6        1.0  0.9284795628970668  0.4000845475536679  0.558615652072419  1.0000
  C   C7        1.0  0.9258546655234168  0.5265291502288321  0.4177653614217789  1.0000
  C   C8        1.0  0.06518065916164768  0.6090572184926232  0.5709178376085546  1.0000
  C   C9        1.0  0.9194949950901687  0.5901579345085112  0.5890779531470828  1.0000
  C   C10       1.0  0.12115650102288097  0.5089121209509315  0.5228008140848388  1.0000
  C   C11       1.0  0.8755165693969217  0.5040040071379011  0.5194815206375126  1.0000
  C   C12       1.0  0.49870676919005763  0.49853510785229826  0.9599970661645757  1.0000
  C   C13       1.0  0.4973226571066218  0.48179936091121794  0.2249335693023227  1.0000
  C   C14       1.0  0.49767194336266835  0.48559527324923824  0.13933858480024952  1.0000
  C   C15       1.0  0.4981552120762983  0.491387269176066  0.0459506767844076  1.0000
  C   C16       1.0  0.10433134454363108  0.4193071362331509  0.676289849224986  1.0000
  C   C17       1.0  0.13293280475311056  0.5832465256932267  0.3587476492394402  1.0000
  C   C18       1.0  0.8708371522939087  0.36888901824624304  0.6472417461961657  1.0000
  C   C19       1.0  0.8950744928201502  0.6305758844079108  0.3855796031519958  1.0000
  C   C20       1.0  0.13470579558695306  0.3130111526252506  0.5513845611877883  1.0000
  C   C21       1.0  0.10181135833610708  0.40984902947047896  0.3718203551807733  1.0000
  C   C22       1.0  0.9030075730351612  0.3138881524698007  0.4961349695608916  1.0000
  C   C23       1.0  0.4994845412212924  0.5050247702551758  0.8666498722466687  1.0000
  C   C24       1.0  0.8674372210137591  0.46195894170817536  0.3470878675211467  1.0000
  C   C25       1.0  0.2280703022302788  0.6422844532313334  0.6930246044498034  1.0000
  C   C26       1.0  0.14356185278899147  0.7731942042681724  0.5085322063092904  1.0000
  C   C27       1.0  0.807884737527125  0.5793424636940828  0.738240545910145  1.0000
  C   C28       1.0  0.8762365119276649  0.7694310437252981  0.6171762845098812  1.0000
  C   C29       1.0  0.5003676500563543  0.5101682688306468  0.7810098570122932  1.0000
  C   C30       1.0  0.5098239384354314  0.8504302137845485  0.4881334309640124  1.0000
  C   C31       1.0  0.5016869302460661  0.1484697786834275  0.5015419846248506  1.0000
  C   C32       1.0  0.5088987291007071  0.9532493996087581  0.4895431368459313  1.0000
  C   C33       1.0  0.5054256395482923  0.04595878903698749  0.49410961806304243  1.0000
  C   C34       1.0  0.2623777092738493  0.5084073732500444  0.5131986144347778  1.0000
  N   N1        1.0  0.5083004383179313  0.7617646475483395  0.48920609758696554  1.0000
  N   N2        1.0  0.8169838178270368  0.4168831260622099  0.2892498952599425  1.0000
  N   N3        1.0  0.4987018692702136  0.23656049549419583  0.509575243084008  1.0000
  N   N4        1.0  0.1388853786168909  0.41821302628402185  0.7531640102038751  1.0000
  N   N5        1.0  0.1839053833493836  0.6348440627816033  0.30555203842224193  1.0000
  N   N6        1.0  0.8302622448201828  0.33185905671815163  0.7143631336363044  1.0000
  N   N7        1.0  0.8697084187669333  0.7072703450786334  0.3492224267682361  1.0000
  N   N8        1.0  0.1717500428936773  0.2299604502816379  0.5443740716176891  1.0000
  N   N9        1.0  0.12717172044551717  0.3363011569026  0.3306302270761706  1.0000
  N   N10       1.0  0.8797238712107428  0.24164214376625637  0.4531547472747448  1.0000
  O   O1        1.0  0.518632164336168  0.404565356019198  0.3701230578629763  1.0000
  O   O2        1.0  0.0684962106524338  0.6854853091792492  0.5011785722599811  1.0000
  O   O3        1.0  0.9107648281915528  0.5522325574558522  0.6806659407380238  1.0000
  O   O4        1.0  0.8482080993033064  0.674879065317569  0.5716699608785734  1.0000
  O   O5        1.0  0.47408297739575994  0.5742401283947984  0.35954818787308085  1.0000
  O   O6        1.0  0.3111897610111356  0.42281436888452373  0.49813923743752764  1.0000
  O   O7        1.0  0.3138057820218306  0.5936670777814257  0.516192615218941  1.0000
  O   O8        1.0  0.6855595909726232  0.4155948737746655  0.5351160838650273  1.0000
  O   O9        1.0  0.68244454796001  0.5755449859852318  0.4764451191442163  1.0000
  O   O10       1.0  0.4735538129926908  0.42101159741718425  0.6452883054924002  1.0000
  O   O11       1.0  0.5232759203625719  0.5888520762606718  0.6364096045242746  1.0000
  O   O12       1.0  0.10582578673806607  0.6389435743810593  0.65748059407062  1.0000
