data_image0
_chemical_formula_structural       Cd2H16C20Br4N4O4
_chemical_formula_sum              "Cd2 H16 C20 Br4 N4 O4"
_cell_length_a       3.975641515712913
_cell_length_b       8.370567244700158
_cell_length_c       18.564827714964416
_cell_angle_alpha    92.2731947133708
_cell_angle_beta     90.03695752975452
_cell_angle_gamma    103.56732648955389

_space_group_name_H-M_alt    "P 1"
_space_group_IT_number       1

loop_
  _space_group_symop_operation_xyz
  'x, y, z'

loop_
  _atom_site_type_symbol
  _atom_site_label
  _atom_site_symmetry_multiplicity
  _atom_site_fract_x
  _atom_site_fract_y
  _atom_site_fract_z
  _atom_site_occupancy
  Cd  Cd1       1.0  0.2769545298081939  0.9998468054015109  0.7495294753088759  1.0000
  Cd  Cd2       1.0  0.7230439647622687  0.00015376119579710187  0.2504709204183088  1.0000
  H   H1        1.0  0.8524342070285514  0.5280285323167251  0.7144860495241545  1.0000
  H   H2        1.0  0.3290623226907601  0.47257661670060713  0.7852404698103471  1.0000
  H   H3        1.0  0.1475636716389986  0.4719707968290337  0.2855137886236321  1.0000
  H   H4        1.0  0.6709380748620293  0.5274227180530886  0.214759907262291  1.0000
  H   H5        1.0  0.5784440674131018  0.24690288053751894  0.4765336027672546  1.0000
  H   H6        1.0  0.32391599260947884  0.7518240210011559  0.023308097481461208  1.0000
  H   H7        1.0  0.4215399432452857  0.7530989123257543  0.5234657333227802  1.0000
  H   H8        1.0  0.6761070344211222  0.248175296837843  0.9766922809171776  1.0000
  H   H9        1.0  0.27415761140243694  0.13901703811095706  0.5877776250452558  1.0000
  H   H10       1.0  0.12848418734827052  0.8601699129260753  0.911805952944981  1.0000
  H   H11       1.0  0.7258333400087553  0.8609835341245926  0.4122227702399216  1.0000
  H   H12       1.0  0.8715319169247947  0.13983065549006576  0.0881955213685544  1.0000
  H   H13       1.0  0.17716366360357952  0.652331863762676  0.6108487875801103  1.0000
  H   H14       1.0  0.5312871459427271  0.34855237373150066  0.8889776172196306  1.0000
  H   H15       1.0  0.8228297976952206  0.34766869910610154  0.38915106907489166  1.0000
  H   H16       1.0  0.4687114084001324  0.6514432561548986  0.1110216258923415  1.0000
  C   C1        1.0  0.8057294199276727  0.4703700367232031  0.6606786712749013  1.0000
  C   C2        1.0  0.3383876528491785  0.5300897799075274  0.839058636282232  1.0000
  C   C3        1.0  0.19426151348825027  0.5296305055629205  0.33931956890023685  1.0000
  C   C4        1.0  0.6616171620723607  0.46990832112315684  0.1609417222831837  1.0000
  C   C5        1.0  0.6541053397571234  0.314644569569495  0.5276214109564421  1.0000
  C   C6        1.0  0.33496194400148505  0.6846453265165452  0.9721739250749338  1.0000
  C   C7        1.0  0.3458767724177536  0.6853584626247412  0.47237848256565945  1.0000
  C   C8        1.0  0.6650560542562687  0.31535399508128137  0.027826453029042904  1.0000
  C   C9        1.0  0.4811453578237278  0.2501239151507307  0.5882138252841145  1.0000
  C   C10       1.0  0.22700759857237085  0.7493771564843216  0.9114745731189089  1.0000
  C   C11       1.0  0.5188461959939304  0.7498778720743005  0.41178551124792767  1.0000
  C   C12       1.0  0.7730059823166331  0.2506233988365168  0.08852582349228301  1.0000
  C   C13       1.0  0.981824373803299  0.5382292346544804  0.6011317668581952  1.0000
  C   C14       1.0  0.4470809285223966  0.4622477476153011  0.8987103067930776  1.0000
  C   C15       1.0  0.01816406322146957  0.4617713394604764  0.39886862827965075  1.0000
  C   C16       1.0  0.5529238819003199  0.537750345928025  0.1012895129948248  1.0000
  C   C17       1.0  0.9098926822092751  0.4631709370696981  0.531956905793308  1.0000
  C   C18       1.0  0.4464938393992244  0.5367449928384362  0.9679566435254189  1.0000
  C   C19       1.0  0.09008942096797071  0.5368320801498286  0.468041910173767  1.0000
  C   C20       1.0  0.5535216399732833  0.46325432315144627  0.03204319565370641  1.0000
  Br  Br1       1.0  0.8160384522094973  0.08880180092821631  0.8484886951064824  1.0000
  Br  Br2       1.0  0.7295369811553558  0.9117021012085547  0.6504553857988215  1.0000
  Br  Br3       1.0  0.1839619408444691  0.9111975263381283  0.15151114318863534  1.0000
  Br  Br4       1.0  0.27046402330271485  0.08829845602198821  0.349544471298188  1.0000
  N   N1        1.0  0.554655772942745  0.328661254568388  0.6541220782046011  1.0000
  N   N2        1.0  0.2256448821337573  0.6713879941918892  0.8455220939998116  1.0000
  N   N3        1.0  0.4453383042589751  0.6713405457519386  0.3458783360297915  1.0000
  N   N4        1.0  0.7743630540794797  0.32861132743622784  0.15447774473731363  1.0000
  O   O1        1.0  0.3772141659585558  0.27301668656728845  0.7115879500738985  1.0000
  O   O2        1.0  0.10375143663353743  0.727008909040336  0.7879406429289376  1.0000
  O   O3        1.0  0.6227837172078099  0.7269826500658283  0.28841242685140145  1.0000
  O   O4        1.0  0.8962596253702274  0.272991640672558  0.21205921475740305  1.0000
