data_image0
_chemical_formula_structural       Zn2H10C28N2O10
_chemical_formula_sum              "Zn2 H10 C28 N2 O10"
_cell_length_a       14.024168396355593
_cell_length_b       14.849250447052082
_cell_length_c       16.196208388969826
_cell_angle_alpha    89.63076505672335
_cell_angle_beta     90.45588454419523
_cell_angle_gamma    99.4825270203131

_space_group_name_H-M_alt    "P 1"
_space_group_IT_number       1

loop_
  _space_group_symop_operation_xyz
  'x, y, z'

loop_
  _atom_site_type_symbol
  _atom_site_label
  _atom_site_symmetry_multiplicity
  _atom_site_fract_x
  _atom_site_fract_y
  _atom_site_fract_z
  _atom_site_occupancy
  Zn  Zn1       1.0  0.49456817220396226  0.4045732009069384  0.5002644007186205  1.0000
  Zn  Zn2       1.0  0.5054394296894954  0.5954507980792058  0.49975169466659264  1.0000
  H   H1        1.0  0.4984324017115468  0.35479546454529753  0.0780776753320112  1.0000
  H   H2        1.0  0.6140450959819005  0.09839108792525048  0.5941483569500647  1.0000
  H   H3        1.0  0.5015692278665042  0.6451576334295767  0.9219373723545345  1.0000
  H   H4        1.0  0.4988778565717808  0.3543615045423678  0.9244784114999335  1.0000
  H   H5        1.0  0.5011336027034474  0.6455999533149637  0.0755323215584838  1.0000
  H   H6        1.0  0.39050961439826887  0.0704871062807655  0.40624434445501123  1.0000
  H   H7        1.0  0.6094629724982923  0.9295377417501384  0.5937302670718979  1.0000
  H   H8        1.0  0.0006844542971081031  0.3307144637583193  0.4998464481607598  1.0000
  H   H9        1.0  0.9993156914512723  0.6692617961814306  0.5001537088127039  1.0000
  H   H10       1.0  0.3859311004354211  0.9016297740927331  0.40581516400162343  1.0000
  C   C1        1.0  0.49997574925495764  0.500696852215178  0.3392432074594325  1.0000
  C   C2        1.0  0.4354445927278475  0.94511969196909  0.4465789474960929  1.0000
  C   C3        1.0  0.5032200507758516  0.1895153661582896  0.5006648834618447  1.0000
  C   C4        1.0  0.49676232622245914  0.8105130868749199  0.4993017225395917  1.0000
  C   C5        1.0  0.31152715495091593  0.47025144672299046  0.49883076426109346  1.0000
  C   C6        1.0  0.6884729345235739  0.529747250811667  0.5011779712932523  1.0000
  C   C7        1.0  0.7923082870697299  0.5368637645243339  0.501281681626665  1.0000
  C   C8        1.0  0.20769779558040816  0.46313233339813553  0.49872214137973014  1.0000
  C   C9        1.0  0.9795433587390715  0.5391025382408117  0.5001169121243337  1.0000
  C   C10       1.0  0.02046165736491898  0.4608635880330425  0.49988699471762754  1.0000
  C   C11       1.0  0.12044836454522569  0.4627255402703838  0.49917361325109516  1.0000
  C   C12       1.0  0.5000428412043831  0.49933823596997934  0.6607735085834394  1.0000
  C   C13       1.0  0.87955857958039  0.537257635665462  0.5008314850428237  1.0000
  C   C14       1.0  0.4994336181050373  0.4178715452055074  0.9579331723994997  1.0000
  C   C15       1.0  0.5005816995388342  0.5820872670058963  0.0420751110895523  1.0000
  C   C16       1.0  0.5002717683420244  0.4996997520290664  0.9127914580905527  1.0000
  C   C17       1.0  0.49973122750078863  0.5002622239277131  0.08722233328541763  1.0000
  C   C18       1.0  0.5008584488889554  0.5818279499033211  0.9564637660264523  1.0000
  C   C19       1.0  0.4991444153533847  0.4181285796225467  0.0435494233490701  1.0000
  C   C20       1.0  0.5003576172598442  0.49938864604028055  0.8253359097100843  1.0000
  C   C21       1.0  0.4996545180005754  0.5006048130966435  0.17467658464801872  1.0000
  C   C22       1.0  0.49975494301839507  0.5008444245919321  0.2499546342704164  1.0000
  C   C23       1.0  0.500263582686152  0.4991763633406593  0.7500633580801266  1.0000
  C   C24       1.0  0.43791303683241256  0.03891685757066202  0.4468352337843271  1.0000
  C   C25       1.0  0.5620653339873484  0.9611088053611997  0.5531295150861197  1.0000
  C   C26       1.0  0.5023338319889489  0.0936491298447493  0.5002725151205994  1.0000
  C   C27       1.0  0.4976441320604009  0.9063785734017387  0.49969037418519946  1.0000
  C   C28       1.0  0.5645320230395682  0.0549039024204845  0.5533839494177357  1.0000
  N   N1        1.0  0.49797266333550266  0.7325983481987065  0.49933866075485167  1.0000
  N   N2        1.0  0.5020178631065377  0.26742678491976335  0.5006495915163073  1.0000
  O   O1        1.0  0.4943499049609272  0.4229752191591487  0.37445319681813066  1.0000
  O   O2        1.0  0.04033253700644219  0.622348435936175  0.4994352555033076  1.0000
  O   O3        1.0  0.505660818015123  0.5770733172468925  0.6255714813021884  1.0000
  O   O4        1.0  0.5057454017585598  0.5781946272820518  0.37402750490104353  1.0000
  O   O5        1.0  0.49428241858454663  0.4218542649296851  0.625981791540454  1.0000
  O   O6        1.0  0.34641834866955884  0.3961805868656398  0.4991073759486326  1.0000
  O   O7        1.0  0.6535951103241189  0.6038305880493695  0.5009075408406434  1.0000
  O   O8        1.0  0.3581563921566725  0.5515388625266625  0.49871202367427264  1.0000
  O   O9        1.0  0.6418483700724734  0.4484626701307164  0.5012874571851214  1.0000
  O   O10       1.0  0.9596654532505366  0.37762301062544174  0.5005679957012958  1.0000
