data_image0
_chemical_formula_structural       Al2H3C24S6N3O18
_chemical_formula_sum              "Al2 H3 C24 S6 N3 O18"
_cell_length_a       4.075003027995897
_cell_length_b       20.09788807618191
_cell_length_c       20.099991996075307
_cell_angle_alpha    120.00000193506104
_cell_angle_beta     89.98736465646455
_cell_angle_gamma    90.00700515182949

_space_group_name_H-M_alt    "P 1"
_space_group_IT_number       1

loop_
  _space_group_symop_operation_xyz
  'x, y, z'

loop_
  _atom_site_type_symbol
  _atom_site_label
  _atom_site_symmetry_multiplicity
  _atom_site_fract_x
  _atom_site_fract_y
  _atom_site_fract_z
  _atom_site_occupancy
  Al  Al1       1.0  0.9315054170336126  0.49998345714021025  0.4999780639429187  1.0000
  Al  Al2       1.0  0.004928086303721102  0.16668131765153038  0.8333423651028297  1.0000
  H   H1        1.0  0.2038059954339744  0.18996871077646185  0.6299965645391125  1.0000
  H   H2        1.0  0.20363201313435303  0.9399983123549233  0.8100597780760308  1.0000
  H   H3        1.0  0.2036147600229299  0.3700531337214628  0.060028787842519166  1.0000
  C   C1        1.0  0.4323455818685957  0.43771851097690023  0.383060190525903  1.0000
  C   C2        1.0  0.43216722623164117  0.4453247092513379  0.5622419124985569  1.0000
  C   C3        1.0  0.4322720217014648  0.6169104239053168  0.5546517619706532  1.0000
  C   C4        1.0  0.5014144409332957  0.2227504107379942  0.7724216144529307  1.0000
  C   C5        1.0  0.5013254029415251  0.04967922914890695  0.7772832090227766  1.0000
  C   C6        1.0  0.5012629427405954  0.22760766477310998  0.9503310178765005  1.0000
  C   C7        1.0  0.5708059025761258  0.42365734526663335  0.6755201022783338  1.0000
  C   C8        1.0  0.3336377670879571  0.244229501101529  0.6623987482707747  1.0000
  C   C9        1.0  0.42910523650139953  0.4018322828357979  0.6049074279177018  1.0000
  C   C10       1.0  0.48524096467979666  0.26671561080142675  0.7320906279688586  1.0000
  C   C11       1.0  0.3761570660993314  0.30102354817305604  0.641285530923163  1.0000
  C   C12       1.0  0.5469244687859672  0.36607721721723147  0.6964885638834062  1.0000
  C   C13       1.0  0.5709363080375951  0.7519003797011833  0.5763796582765648  1.0000
  C   C14       1.0  0.33353698898337575  0.9181527621921644  0.7558075833630509  1.0000
  C   C15       1.0  0.42920683983093266  0.703072296574625  0.5981709079509654  1.0000
  C   C16       1.0  0.4852319812145042  0.9653827216305331  0.7333384200550269  1.0000
  C   C17       1.0  0.3761333030363119  0.8402478709948296  0.6990057901181925  1.0000
  C   C18       1.0  0.5469802344679593  0.8304380342810518  0.633968275143502  1.0000
  C   C19       1.0  0.5709417000990273  0.3244383760126865  0.24807598393562097  1.0000
  C   C20       1.0  0.3335120905622304  0.337636291691787  0.08186067960385654  1.0000
  C   C21       1.0  0.4292874728232761  0.39506198018452915  0.2969035937029929  1.0000
  C   C22       1.0  0.48512155402925566  0.2679337158920347  0.03462135793908765  1.0000
  C   C23       1.0  0.3761362678838296  0.3587303705550227  0.15975308694987683  1.0000
  C   C24       1.0  0.546953482868915  0.30349795149668074  0.1695480151990196  1.0000
  S   S1        1.0  0.2614685661265455  0.3111986317648956  0.5636865267709013  1.0000
  S   S2        1.0  0.6720606785924589  0.35662200625385765  0.7724741514925313  1.0000
  S   S3        1.0  0.2614352246707767  0.7524372821323055  0.6887874654184571  1.0000
  S   S4        1.0  0.6720951789885133  0.9159037546781689  0.6434473473965027  1.0000
  S   S5        1.0  0.2615132781987057  0.4363220580250058  0.24755642111270496  1.0000
  S   S6        1.0  0.6719756803503075  0.2275160197660426  0.08408310836558287  1.0000
  N   N1        1.0  0.7320318227843216  0.4962012591364909  0.7220148116903856  1.0000
  N   N2        1.0  0.7322904122468119  0.7258954559435864  0.5038576468612277  1.0000
  N   N3        1.0  0.7322803605732418  0.27791928823425127  0.274071733868304  1.0000
  O   O1        1.0  0.670350119832996  0.585815030294782  0.5695476775442357  1.0000
  O   O2        1.0  0.6704675305774969  0.4837107668714751  0.41413746328882434  1.0000
  O   O3        1.0  0.6702930403517443  0.4304103273587143  0.5162461055638586  1.0000
  O   O4        1.0  0.1947525860387813  0.5830091437616005  0.5098114924488043  1.0000
  O   O5        1.0  0.19457740571302654  0.4901570934129039  0.5731749927007569  1.0000
  O   O6        1.0  0.19476333641779323  0.4267803949564523  0.4169677285394683  1.0000
  O   O7        1.0  0.7422181214734778  0.18144294629828273  0.9188265851977134  1.0000
  O   O8        1.0  0.7423580520402382  0.2374120699270603  0.8185729664294994  1.0000
  O   O9        1.0  0.7422776262389448  0.08118285479002901  0.7626143231910589  1.0000
  O   O10       1.0  0.2736372557896658  0.24151815715210015  0.9152310733790258  1.0000
  O   O11       1.0  0.2736089302600392  0.08478796555919395  0.8262864816532131  1.0000
  O   O12       1.0  0.2737706002138864  0.17372900434393285  0.7585181832691743  1.0000
  O   O13       1.0  0.8821647878727035  0.5039979178848809  0.7795845380847125  1.0000
  O   O14       1.0  0.7127200147149326  0.5454180825982604  0.7021056630739507  1.0000
  O   O15       1.0  0.8823880244273141  0.7757007363216742  0.4960824889812513  1.0000
  O   O16       1.0  0.7131356080659117  0.656769370967261  0.4546325032592333  1.0000
  O   O17       1.0  0.88235376053418  0.22034103787671455  0.22426339337136617  1.0000
  O   O18       1.0  0.7131273865293296  0.29781253418200737  0.3431913498327645  1.0000
