data_image0
_chemical_formula_structural       Co3H50C66O24
_chemical_formula_sum              "Co3 H50 C66 O24"
_cell_length_a       11.116984441704943
_cell_length_b       14.261251841500941
_cell_length_c       18.10677979883146
_cell_angle_alpha    108.64571052603216
_cell_angle_beta     101.8918139765352
_cell_angle_gamma    99.62784639934262

_space_group_name_H-M_alt    "P 1"
_space_group_IT_number       1

loop_
  _space_group_symop_operation_xyz
  'x, y, z'

loop_
  _atom_site_type_symbol
  _atom_site_label
  _atom_site_symmetry_multiplicity
  _atom_site_fract_x
  _atom_site_fract_y
  _atom_site_fract_z
  _atom_site_occupancy
  Co  Co1       1.0  1.6936362044462635e-05  0.5000067390005826  7.183611899156758e-06  1.0000
  Co  Co2       1.0  0.3187989190843865  0.6195867109834836  0.10118940389269672  1.0000
  Co  Co3       1.0  0.6812181776611439  0.3804187226095762  0.8988090197374345  1.0000
  H   H1        1.0  0.9502312464759299  0.8841185333400929  0.7250424666221985  1.0000
  H   H2        1.0  0.049773787011432105  0.11588735729591089  0.2749693890869977  1.0000
  H   H3        1.0  0.9641356312085634  0.7696698470973259  0.652626344987297  1.0000
  H   H4        1.0  0.035846561604920224  0.23033100456721203  0.3473816757448275  1.0000
  H   H5        1.0  0.3363054235993488  0.8695377036626296  0.8405268845833616  1.0000
  H   H6        1.0  0.6637021521437275  0.13041038027177618  0.15942844038383436  1.0000
  H   H7        1.0  0.35528013305209777  0.7815826054352896  0.9408418945447178  1.0000
  H   H8        1.0  0.6447517174669456  0.21837746487857854  0.059117653902042336  1.0000
  H   H9        1.0  0.951332511732943  0.6552437708138471  0.8599243367585669  1.0000
  H   H10       1.0  0.04868568786605461  0.3447800186763672  0.14010399585767885  1.0000
  H   H11       1.0  0.9301634959701414  0.7429930290485486  0.7620040300612343  1.0000
  H   H12       1.0  0.069834084370811  0.25703250843215397  0.23802533787053182  1.0000
  H   H13       1.0  0.8534493122923195  0.9514249494283786  0.6176037466907827  1.0000
  H   H14       1.0  0.14653248118585077  0.0485641254322147  0.3824088111206762  1.0000
  H   H15       1.0  0.9239691810726924  0.9419600196078193  0.5359874349189864  1.0000
  H   H16       1.0  0.07600882294995868  0.058042285969207796  0.4640248358749587  1.0000
  H   H17       1.0  0.7115945691510034  0.6188339651591193  0.45588427142543947  1.0000
  H   H18       1.0  0.2883970392871688  0.38115620582590276  0.5441155220198579  1.0000
  H   H19       1.0  0.5516819915076282  0.5552919167893577  0.3191444148313636  1.0000
  H   H20       1.0  0.4483088866930274  0.44470437462793905  0.68085802041314  1.0000
  H   H21       1.0  0.601487447169589  0.8624927072238435  0.3249913087391079  1.0000
  H   H22       1.0  0.398508448304696  0.13750791155387532  0.6750190272981482  1.0000
  H   H23       1.0  0.7549169100702926  0.9277350874396716  0.4610874298058859  1.0000
  H   H24       1.0  0.24507554603410134  0.0722579396269296  0.5389193162738051  1.0000
  H   H25       1.0  0.20012574127478905  0.8527771517252419  0.6155648917306422  1.0000
  H   H26       1.0  0.7998615575399481  0.14722966442429447  0.38442551257401886  1.0000
  H   H27       1.0  0.05405338425823918  0.7749601012168909  0.5422149149909784  1.0000
  H   H28       1.0  0.9459317031323734  0.22503545699109398  0.45778821064522635  1.0000
  H   H29       1.0  0.9455010639937598  0.7458048685237272  0.417740196758757  1.0000
  H   H30       1.0  0.054472257280131914  0.2541787577451373  0.5822300000138155  1.0000
  H   H31       1.0  0.9414360597195639  0.651370943095124  0.2783991666486472  1.0000
  H   H32       1.0  0.05856237515121172  0.34863246859357844  0.7215735803184555  1.0000
  H   H33       1.0  0.3098575753639352  0.8420051570007558  0.31369513983580777  1.0000
  H   H34       1.0  0.690148837314446  0.15802388932269906  0.686319214682143  1.0000
  H   H35       1.0  0.3131219563659116  0.9397860257695072  0.4568661598421214  1.0000
  H   H36       1.0  0.6868479245899692  0.060219479908674586  0.5431458834726113  1.0000
  H   H37       1.0  0.20402659232829726  0.022367451636341705  0.7152932074647607  1.0000
  H   H38       1.0  0.7959572216878215  0.9776326619586796  0.28471317471730373  1.0000
  H   H39       1.0  0.1143143971729188  0.0652908368354517  0.6441251592860266  1.0000
  H   H40       1.0  0.8856744313146477  0.9347018120183604  0.3558710581839292  1.0000
  H   H41       1.0  0.9462276532161125  0.12678531051172828  0.8571175225249232  1.0000
  H   H42       1.0  0.053762862267966234  0.8732288416072791  0.14288410838981488  1.0000
  H   H43       1.0  0.0324516037704825  0.2944248925854324  0.9728050287999889  1.0000
  H   H44       1.0  0.9675671597693878  0.7055832731776659  0.02720373830427286  1.0000
  H   H45       1.0  0.3503862108856026  0.3598159189698363  0.8800217127995891  1.0000
  H   H46       1.0  0.6496166224992024  0.6401768440750999  0.11996645594710029  1.0000
  H   H47       1.0  0.264942710923961  0.1958647193094052  0.7641502046310931  1.0000
  H   H48       1.0  0.7350310882377116  0.8041346625166883  0.2358353118406954  1.0000
  H   H49       1.0  0.9813434677060824  0.578835386990832  0.18013739146149269  1.0000
  H   H50       1.0  0.018772264716297112  0.4211086812818578  0.8198776739585153  1.0000
  C   C1        1.0  0.03383162933563716  0.9085422535977371  0.6324580051346016  1.0000
  C   C2        1.0  0.9661548998559649  0.09145483708025641  0.36754516921880037  1.0000
  C   C3        1.0  0.011382460070734684  0.8507459586770095  0.6887591034775651  1.0000
  C   C4        1.0  0.9886112381031679  0.1492533246112728  0.3112456111020449  1.0000
  C   C5        1.0  0.13326482994960295  0.8108139062973408  0.794585892332435  1.0000
  C   C6        1.0  0.86673857132466  0.18917549710131001  0.20540974211184693  1.0000
  C   C7        1.0  0.25290927522240036  0.8221136750521439  0.8454978125654831  1.0000
  C   C8        1.0  0.7471011315043864  0.1778546260601246  0.15447765155180082  1.0000
  C   C9        1.0  0.26306604153400304  0.7734342810976925  0.900919599428917  1.0000
  C   C10       1.0  0.7369567977553401  0.22653539905619618  0.0990567837943459  1.0000
  C   C11       1.0  0.1544534389418857  0.7121972374038634  0.9061156687695938  1.0000
  C   C12       1.0  0.8455703149539673  0.2877980121455153  0.09388368478762031  1.0000
  C   C13       1.0  0.03551469717888978  0.702169332703697  0.8553876013322746  1.0000
  C   C14       1.0  0.9645021703136081  0.2978417320648957  0.1446277644403864  1.0000
  C   C15       1.0  0.02387361331945219  0.7513319190177443  0.8000181233229495  1.0000
  C   C16       1.0  0.9761303261950687  0.24867625646575678  0.1999953016648419  1.0000
  C   C17       1.0  0.16427912725772134  0.6584380036307492  0.964582258660705  1.0000
  C   C18       1.0  0.835753400915891  0.34155868219213664  0.0354175420478384  1.0000
  C   C19       1.0  0.9058870200900913  0.9071755047580792  0.5800975462431521  1.0000
  C   C20       1.0  0.0940939624682429  0.09281912721929328  0.4199114150386975  1.0000
  C   C21       1.0  0.7441919019725345  0.7763492153850962  0.4665519324350455  1.0000
  C   C22       1.0  0.25579877271101026  0.22364389509922938  0.5334529412417764  1.0000
  C   C23       1.0  0.6858271815250132  0.6713849369241913  0.4265676788370739  1.0000
  C   C24       1.0  0.3141623706475727  0.32860747841451854  0.5734352023236935  1.0000
  C   C25       1.0  0.5979242426191576  0.6364650152950732  0.3509023659684658  1.0000
  C   C26       1.0  0.40206264209948744  0.3635304777624456  0.6491020865954267  1.0000
  C   C27       1.0  0.5685055271544001  0.705066527133553  0.31319347473439035  1.0000
  C   C28       1.0  0.4314814179167286  0.29493198245160107  0.6868134486737957  1.0000
  C   C29       1.0  0.6258948768045869  0.8094879596883403  0.35421997651784654  1.0000
  C   C30       1.0  0.3740945245044712  0.1905097061830148  0.6457881537048349  1.0000
  C   C31       1.0  0.7122987102151582  0.8460754029966467  0.4309788887027181  1.0000
  C   C32       1.0  0.28769218831533283  0.15391843520851717  0.5690273140263213  1.0000
  C   C33       1.0  0.4776195500432578  0.6682354371265761  0.23124339056182203  1.0000
  C   C34       1.0  0.5223643007192535  0.3317730896668111  0.7687663477250123  1.0000
  C   C35       1.0  0.10937907809785233  0.8539940226038283  0.5781069987519415  1.0000
  C   C36       1.0  0.8905992791590335  0.14600574139434028  0.42188861884306295  1.0000
  C   C37       1.0  0.13142122632599762  0.8477946242564941  0.44658729599458974  1.0000
  C   C38       1.0  0.8685453287401188  0.1522000021436085  0.553403720586594  1.0000
  C   C39       1.0  0.026737133320118338  0.7663149893223961  0.3960547273967946  1.0000
  C   C40       1.0  0.9732424517195564  0.23367674904917377  0.6039256516281595  1.0000
  C   C41       1.0  0.025785840918011737  0.7127015984942491  0.3166805788924734  1.0000
  C   C42       1.0  0.9742118440224414  0.2873000106748265  0.6832998739986066  1.0000
  C   C43       1.0  0.12814452557804404  0.7390996417554447  0.286715381199393  1.0000
  C   C44       1.0  0.8718653346431889  0.26091684578091895  0.7132795052409616  1.0000
  C   C45       1.0  0.23092595842558694  0.8223453631618227  0.3375787781569952  1.0000
  C   C46       1.0  0.7690739869699  0.17767239012594868  0.6624278325408851  1.0000
  C   C47       1.0  0.23276169465152205  0.8762980405303649  0.41666519116527195  1.0000
  C   C48       1.0  0.7672161288230797  0.12370606360700981  0.5833398011912221  1.0000
  C   C49       1.0  0.13700489914638334  0.6835224994618301  0.20476136946219006  1.0000
  C   C50       1.0  0.8630234247109385  0.31650769445681703  0.7952346633648941  1.0000
  C   C51       1.0  0.107456280956157  0.019979704074842192  0.6829865860362643  1.0000
  C   C52       1.0  0.8925301960912504  0.9800198032807684  0.3170139117829648  1.0000
  C   C53       1.0  0.097912798198962  0.1517704688887349  0.8026507121744257  1.0000
  C   C54       1.0  0.9020728838357923  0.8482346138509197  0.19734564364001256  1.0000
  C   C55       1.0  0.033874371817113114  0.1791465745769898  0.8624490968375792  1.0000
  C   C56       1.0  0.9661198414650227  0.820862141906666  0.13755157529615045  1.0000
  C   C57       1.0  0.08205596375007221  0.2722490245373308  0.9265938063113166  1.0000
  C   C58       1.0  0.9179541368623063  0.7277578328230874  0.07341069531536704  1.0000
  C   C59       1.0  0.19506002618406626  0.3391856015417574  0.9324847760560426  1.0000
  C   C60       1.0  0.8049535801937963  0.6608151289969868  0.06751634678706607  1.0000
  C   C61       1.0  0.26083280990020796  0.3093689084330435  0.87415632001408  1.0000
  C   C62       1.0  0.7391676402300791  0.6906306765791757  0.12583722003223843  1.0000
  C   C63       1.0  0.21246250804658465  0.21632706567181256  0.8088783800221575  1.0000
  C   C64       1.0  0.7875213640291961  0.7836751204924541  0.19111254159475524  1.0000
  C   C65       1.0  0.24453113343538038  0.4403012670731313  0.9981689056620124  1.0000
  C   C66       1.0  0.7554959199419784  0.5596984663234394  0.00183429438438051  1.0000
  O   O1        1.0  0.13220149007298695  0.8602536150592073  0.7409715881289427  1.0000
  O   O2        1.0  0.8677945787245063  0.1397358845359449  0.2590236478812073  1.0000
  O   O3        1.0  0.058892154428200276  0.5975952906069751  0.9570876186399173  1.0000
  O   O4        1.0  0.9411370742992274  0.4024224950721945  0.04293118792473648  1.0000
  O   O5        1.0  0.27039982691316305  0.6768082905064857  0.015787188320537337  1.0000
  O   O6        1.0  0.7296441446126208  0.3231724902900766  0.9841977355910525  1.0000
  O   O7        1.0  0.8335521337731534  0.8026986468174686  0.5392087334466424  1.0000
  O   O8        1.0  0.16643576538243113  0.19729447005624934  0.4607968772145482  1.0000
  O   O9        1.0  0.3951700585357328  0.582483701182646  0.20407902985861875  1.0000
  O   O10       1.0  0.604794942268029  0.4175343766008908  0.79592964297219  1.0000
  O   O11       1.0  0.48105749022784045  0.7240799845117609  0.18799533233411128  1.0000
  O   O12       1.0  0.5189448949890192  0.27592605865171294  0.8120128965580232  1.0000
  O   O13       1.0  0.1382899679532557  0.9062639877398765  0.5248533530922186  1.0000
  O   O14       1.0  0.8616569937762791  0.0937325002135552  0.47513499846689905  1.0000
  O   O15       1.0  0.22512664905216428  0.712510790875633  0.17910026817345667  1.0000
  O   O16       1.0  0.7748774053429413  0.287547865777924  0.8208874248107487  1.0000
  O   O17       1.0  0.04849002011413725  0.5963795959225352  0.1560011792966236  1.0000
  O   O18       1.0  0.9515711910505685  0.4036308215675675  0.8439956109221637  1.0000
  O   O19       1.0  0.03991284440445501  0.06046774344484621  0.7401389948002259  1.0000
  O   O20       1.0  0.9600691475311363  0.9395373599921655  0.2598579800099046  1.0000
  O   O21       1.0  0.1679354132393982  0.48650368377842307  0.034946145849708926  1.0000
  O   O22       1.0  0.8320963929049724  0.5135045556819903  0.9650560909681543  1.0000
  O   O23       1.0  0.35978397149067115  0.48822018910563253  0.022216312093640098  1.0000
  O   O24       1.0  0.6402459013505605  0.5117716880186761  0.9777890331924293  1.0000
