data_image0
_chemical_formula_structural       Gd4H24C24O32
_chemical_formula_sum              "Gd4 H24 C24 O32"
_cell_length_a       8.388791743982521
_cell_length_b       10.403987096904068
_cell_length_c       10.678860515598323
_cell_angle_alpha    115.77085137437979
_cell_angle_beta     89.96610970910795
_cell_angle_gamma    89.98947630780471

_space_group_name_H-M_alt    "P 1"
_space_group_IT_number       1

loop_
  _space_group_symop_operation_xyz
  'x, y, z'

loop_
  _atom_site_type_symbol
  _atom_site_label
  _atom_site_symmetry_multiplicity
  _atom_site_fract_x
  _atom_site_fract_y
  _atom_site_fract_z
  _atom_site_occupancy
  Gd  Gd1       1.0  0.022587367629853403  0.1285432925962198  0.3022320507903657  1.0000
  Gd  Gd2       1.0  0.5221953268857789  0.37146655430336034  0.6978221556224682  1.0000
  Gd  Gd3       1.0  0.9774311500435431  0.8714370271354139  0.6977277811174359  1.0000
  Gd  Gd4       1.0  0.4778219327215823  0.6285585974038455  0.3022990029167331  1.0000
  H   H1        1.0  0.9043318925401423  0.5885112830632836  0.19655512045056164  1.0000
  H   H2        1.0  0.4036079175776592  0.9115700832725009  0.8035327197332477  1.0000
  H   H3        1.0  0.09569134736306488  0.41161846169106997  0.8034820473312436  1.0000
  H   H4        1.0  0.5963103995439597  0.08849351321202191  0.1965794617996508  1.0000
  H   H5        1.0  0.10050700265495752  0.5865952155746967  0.13058652191559622  1.0000
  H   H6        1.0  0.5996921313415768  0.913264294170801  0.8694384807513202  1.0000
  H   H7        1.0  0.8994674148604886  0.4133242770195337  0.8693747126908846  1.0000
  H   H8        1.0  0.40026434877754713  0.08668295647738229  0.130663742497056  1.0000
  H   H9        1.0  0.9932971919116087  0.6711352604582146  0.9697621892961266  1.0000
  H   H10       1.0  0.49213543085544836  0.829180328164682  0.03021427413003868  1.0000
  H   H11       1.0  0.0064018996878019  0.32865514570375604  0.030127577415321082  1.0000
  H   H12       1.0  0.5080237406917405  0.1706836252053563  0.9698067357175759  1.0000
  H   H13       1.0  0.797342187321192  0.6837953352145832  0.030700135813106065  1.0000
  H   H14       1.0  0.29617706796380355  0.8159531859262044  0.9692495420657535  1.0000
  H   H15       1.0  0.2024997931452077  0.31644011737839856  0.9694782998292696  1.0000
  H   H16       1.0  0.7038747012489068  0.1841648181795676  0.0310036436089618  1.0000
  H   H17       1.0  0.1581519883364564  0.4215837127398671  0.4852355160834562  1.0000
  H   H18       1.0  0.6580226617101418  0.07849456475879892  0.5146631106538706  1.0000
  H   H19       1.0  0.8418546453991098  0.5784435682721137  0.5146131093791126  1.0000
  H   H20       1.0  0.34186113290152786  0.9215754396127522  0.4853216292922795  1.0000
  H   H21       1.0  0.1896214593064656  0.39489926058963215  0.3320173478451309  1.0000
  H   H22       1.0  0.6894144963114642  0.10504459363805548  0.6678069805828315  1.0000
  H   H23       1.0  0.8105783392627401  0.6048771576843278  0.6677736717105418  1.0000
  H   H24       1.0  0.310618348135975  0.8948642119063518  0.33211600242291434  1.0000
  C   C1        1.0  0.08485835023049049  0.6821828092118308  0.3523962441672168  1.0000
  C   C2        1.0  0.5844733686544715  0.8178723996234395  0.6476644819039663  1.0000
  C   C3        1.0  0.9151732712072089  0.3178914311075616  0.6475593535614195  1.0000
  C   C4        1.0  0.4155284136518418  0.18211860028434754  0.3524150584114025  1.0000
  C   C5        1.0  0.9785589157791749  0.7838686657560956  0.19041923591883864  1.0000
  C   C6        1.0  0.47787554078932704  0.7160722639854454  0.8095297951581841  1.0000
  C   C7        1.0  0.0215537924809723  0.21609882433445898  0.8094986193033407  1.0000
  C   C8        1.0  0.5219915634236686  0.28388887909876803  0.1904912451197518  1.0000
  C   C9        1.0  0.014543955058407202  0.6506274319164332  0.211228027107083  1.0000
  C   C10       1.0  0.5138306512099503  0.8493765697608706  0.788777155279675  1.0000
  C   C11       1.0  0.9855138963526715  0.3494030428172293  0.7887286922000525  1.0000
  C   C12       1.0  0.4860996107448372  0.15063472437871175  0.2112866502580673  1.0000
  C   C13       1.0  0.7958550649032218  0.8649104996094864  0.30650235963710065  1.0000
  C   C14       1.0  0.2955553775140772  0.6350562185634914  0.6935055781721714  1.0000
  C   C15       1.0  0.20416701763222994  0.13512958923667642  0.6934696772625983  1.0000
  C   C16       1.0  0.704480968752698  0.36495932219763455  0.3065824758163629  1.0000
  C   C17       1.0  0.908427801227873  0.7452560753428441  0.04583106274755262  1.0000
  C   C18       1.0  0.4075489589490715  0.7547584165659629  0.9541835157313656  1.0000
  C   C19       1.0  0.091540627204985  0.2547520069830255  0.9541798699326378  1.0000
  C   C20       1.0  0.5924337459683783  0.2452133763736342  0.04591317728673521  1.0000
  C   C21       1.0  0.8799471253631665  0.8669007967776705  0.0059463562560324885  1.0000
  C   C22       1.0  0.3795888027266159  0.6331207653796725  0.9941769897041227  1.0000
  C   C23       1.0  0.12012147791031677  0.133056029849449  0.9939707382738234  1.0000
  C   C24       1.0  0.6203497996648935  0.3668521042629962  0.005908932418201158  1.0000
  O   O1        1.0  0.2138275747245331  0.6198565604236989  0.35648569440636624  1.0000
  O   O2        1.0  0.7134876305973706  0.8801761104120657  0.6437136486049013  1.0000
  O   O3        1.0  0.7861515452775122  0.38023157014768566  0.6435994075367262  1.0000
  O   O4        1.0  0.286485494002477  0.1199173606074595  0.3564626775348927  1.0000
  O   O5        1.0  0.0091861936605682  0.7676035174702774  0.45880527056077364  1.0000
  O   O6        1.0  0.5090617871445815  0.7324752876756263  0.5412236392434622  1.0000
  O   O7        1.0  0.9908347023185868  0.23247606149517708  0.5411404173059536  1.0000
  O   O8        1.0  0.49095311547853265  0.26752424722140933  0.45883329309092596  1.0000
  O   O9        1.0  0.702965202894319  0.7712098695508515  0.29770632281095283  1.0000
  O   O10       1.0  0.2025507720862336  0.7286952390242405  0.7022754791688328  1.0000
  O   O11       1.0  0.2970043982620112  0.22887826179697157  0.7023319601876494  1.0000
  O   O12       1.0  0.7975869252433299  0.2713544313218818  0.2977352372026303  1.0000
  O   O13       1.0  0.8676550886157984  0.8313736084586123  0.8763928104278945  1.0000
  O   O14       1.0  0.3680263757321072  0.6686147740930011  0.12377631728232077  1.0000
  O   O15       1.0  0.1324898239488519  0.16852343107866827  0.1234970701325935  1.0000
  O   O16       1.0  0.6319420254027719  0.3313623584369552  0.8763160856794627  1.0000
  O   O17       1.0  0.8031733303921837  0.9963661918094143  0.36470751584391076  1.0000
  O   O18       1.0  0.30301758827368985  0.5035994098501816  0.6351972657835959  1.0000
  O   O19       1.0  0.19680350875091082  0.0036792394012224  0.6351169656174633  1.0000
  O   O20       1.0  0.6969615465192476  0.49642147943141857  0.3648687197031109  1.0000
  O   O21       1.0  0.0826002544326627  0.8875258810967704  0.23843853077755028  1.0000
  O   O22       1.0  0.5820085552266433  0.6124268326808463  0.7614946607291203  1.0000
  O   O23       1.0  0.9175315845174765  0.1124106486727072  0.7613360427433591  1.0000
  O   O24       1.0  0.4178371137713413  0.38751723660607945  0.2384732676790691  1.0000
  O   O25       1.0  0.8653568778570103  0.9937440160236615  0.09895029144933429  1.0000
  O   O26       1.0  0.36465274798711533  0.5063096501005404  0.9011579036152851  1.0000
  O   O27       1.0  0.134753475996817  0.006241616550973099  0.9008834786609654  1.0000
  O   O28       1.0  0.6352524944063517  0.4936664274578746  0.0988797542104862  1.0000
  O   O29       1.0  0.1141235593305581  0.37367796433049694  0.3907492442694291  1.0000
  O   O30       1.0  0.613927543389387  0.12633536276390345  0.609178793755234  1.0000
  O   O31       1.0  0.8859414996713114  0.626286331832972  0.609081117644962  1.0000
  O   O32       1.0  0.3860563799968304  0.873664177862828  0.3908397545666986  1.0000
