data_image0
_chemical_formula_structural       K12H20C24O28
_chemical_formula_sum              "K12 H20 C24 O28"
_cell_length_a       7.607904440007747
_cell_length_b       10.454314352002898
_cell_length_c       12.452723186010001
_cell_angle_alpha    90.00001931068678
_cell_angle_beta     89.99985703544932
_cell_angle_gamma    90.0000821107317

_space_group_name_H-M_alt    "P 1"
_space_group_IT_number       1

loop_
  _space_group_symop_operation_xyz
  'x, y, z'

loop_
  _atom_site_type_symbol
  _atom_site_label
  _atom_site_symmetry_multiplicity
  _atom_site_fract_x
  _atom_site_fract_y
  _atom_site_fract_z
  _atom_site_occupancy
  K   K1        1.0  0.6482796957975696  0.2491730837847186  0.12205879149556863  1.0000
  K   K2        1.0  0.8517202058983459  0.7491754695797395  0.6220553701706495  1.0000
  K   K3        1.0  0.1482755179562716  0.24917574538859097  0.3779461715849736  1.0000
  K   K4        1.0  0.35171471362919254  0.7491743050115571  0.8779435532976977  1.0000
  K   K5        1.0  0.35538092091154283  0.9727383357685254  0.20942715687997554  1.0000
  K   K6        1.0  0.14462227867932853  0.47273901105618416  0.7094279187831349  1.0000
  K   K7        1.0  0.8553817766143655  0.9727347834183816  0.2905688697321125  1.0000
  K   K8        1.0  0.644616562273072  0.4727450241321092  0.7905728437904431  1.0000
  K   K9        1.0  0.1473216987257686  0.6983462822869696  0.3757595672890517  1.0000
  K   K10       1.0  0.35268421376284215  0.1983452591906669  0.8757616204200929  1.0000
  K   K11       1.0  0.6473245531552012  0.6983388388207031  0.1242399065483681  1.0000
  K   K12       1.0  0.8526712951189881  0.1983349460877619  0.6242427627281303  1.0000
  H   H1        1.0  0.9452159182141457  0.5734910155071233  0.1252643384820473  1.0000
  H   H2        1.0  0.5547836206656527  0.07348777191899099  0.6252652363296178  1.0000
  H   H3        1.0  0.4452170112587552  0.5734879366034489  0.374733845238346  1.0000
  H   H4        1.0  0.054786028134365915  0.07349138881665596  0.8747371521975043  1.0000
  H   H5        1.0  0.04282110730707701  0.5933877685827652  0.9967756036307167  1.0000
  H   H6        1.0  0.4571775263251753  0.0933876146309771  0.4967761484058215  1.0000
  H   H7        1.0  0.5428257740512168  0.5933869736647921  0.5032197267960683  1.0000
  H   H8        1.0  0.9571769353724165  0.0933877762539623  0.0032242867613022004  1.0000
  H   H9        1.0  0.035335959670952405  0.3497446196003153  0.0027536386692404  1.0000
  H   H10       1.0  0.46466521660349264  0.8497423392302678  0.5027500464313307  1.0000
  H   H11       1.0  0.5353359650878602  0.3497449741197015  0.49724510025761504  1.0000
  H   H12       1.0  0.9646639075904418  0.8497417372067132  0.9972447201693699  1.0000
  H   H13       1.0  0.9511200805089288  0.36949294577569  0.13505332787125474  1.0000
  H   H14       1.0  0.5488760638882582  0.8694902363483265  0.6350527739312284  1.0000
  H   H15       1.0  0.45112384267601163  0.36949081959373586  0.3649431815362902  1.0000
  H   H16       1.0  0.04887456836955551  0.8694919363351938  0.8649426276007972  1.0000
  H   H17       1.0  0.38201064776446003  0.47630406906686307  0.1982343320360087  1.0000
  H   H18       1.0  0.11799260497630122  0.9763052571298303  0.6982328704745842  1.0000
  H   H19       1.0  0.8820193439376143  0.4763014776355375  0.3017695403318825  1.0000
  H   H20       1.0  0.6179855280804818  0.9763074484052506  0.8017704878947002  1.0000
  C   C1        1.0  0.14667160255325487  0.7172503892258887  0.12097754794525882  1.0000
  C   C2        1.0  0.35332750923285533  0.21725032333964822  0.6209787970606301  1.0000
  C   C3        1.0  0.6466707799451115  0.7172497410393672  0.37901711415187833  1.0000
  C   C4        1.0  0.8533253721929057  0.21725350132523144  0.8790247875664292  1.0000
  C   C5        1.0  0.07011039135769442  0.5898350040999459  0.08353678078950108  1.0000
  C   C6        1.0  0.4298899353256687  0.08983406067634549  0.5835379140480867  1.0000
  C   C7        1.0  0.5701146723985603  0.5898305443636856  0.4164579601193807  1.0000
  C   C8        1.0  0.9298889586743899  0.08983534019546369  0.9164631085687917  1.0000
  C   C9        1.0  0.1874526632705269  0.47282117767581866  0.1041578673398575  1.0000
  C   C10       1.0  0.3125457118931082  0.9728196968753762  0.6041553083309595  1.0000
  C   C11       1.0  0.6874570291399922  0.47281670988877506  0.3958414802089152  1.0000
  C   C12       1.0  0.8125461344935233  0.9728200118013461  0.8958421333525096  1.0000
  C   C13       1.0  0.07149817728679861  0.35427579859534564  0.08827064981410623  1.0000
  C   C14       1.0  0.42850134175247245  0.8542744374510322  0.5882679153370134  1.0000
  C   C15       1.0  0.5714998489508076  0.3542732500960425  0.41172883874325816  1.0000
  C   C16       1.0  0.92849907014719  0.8542747585788175  0.9117285133811779  1.0000
  C   C17       1.0  0.15297376671394866  0.22730338841446948  0.1227923360425578  1.0000
  C   C18       1.0  0.3470279864627984  0.7273000301092478  0.6227889218186746  1.0000
  C   C19       1.0  0.6529716371303922  0.2272979568056357  0.3772094014256595  1.0000
  C   C20       1.0  0.8470232280394614  0.7273012942993942  0.8772067902419423  1.0000
  C   C21       1.0  0.34955527765335864  0.4722683645090482  0.027232401799246006  1.0000
  C   C22       1.0  0.15044472730947692  0.9722686295192061  0.5272333002388763  1.0000
  C   C23       1.0  0.8495527549246094  0.4722677529271021  0.4727707154799178  1.0000
  C   C24       1.0  0.6504487766969761  0.9722689744832208  0.9727700078403106  1.0000
  O   O1        1.0  0.30056164105932487  0.7469071181790736  0.0901327768428999  1.0000
  O   O2        1.0  0.19944028548650294  0.24690306732066597  0.5901334557914241  1.0000
  O   O3        1.0  0.8005593771299931  0.7469103082072903  0.40986326707842136  1.0000
  O   O4        1.0  0.6994419648064466  0.24690817043856575  0.9098735824706881  1.0000
  O   O5        1.0  0.04982622087399591  0.7869335434966588  0.18083522144126363  1.0000
  O   O6        1.0  0.45017409774198575  0.2869316644617755  0.6808363240048296  1.0000
  O   O7        1.0  0.5498203868412262  0.7869319153923087  0.3191580013926015  1.0000
  O   O8        1.0  0.9501708925514623  0.2869357756168753  0.8191631191410309  1.0000
  O   O9        1.0  0.06049343935831081  0.15541245900639913  0.18342411352203666  1.0000
  O   O10       1.0  0.4395092357312791  0.6554091961334692  0.6834189532778228  1.0000
  O   O11       1.0  0.5604863015302897  0.15540796026386514  0.31657934907109825  1.0000
  O   O12       1.0  0.9395047267540164  0.6554123497355132  0.8165749918632133  1.0000
  O   O13       1.0  0.30568603225841434  0.19978467835033334  0.08883739443274409  1.0000
  O   O14       1.0  0.19431317699924486  0.6997802059148198  0.5888366204130477  1.0000
  O   O15       1.0  0.8056824485530074  0.19977639037027467  0.4111649069828829  1.0000
  O   O16       1.0  0.6943109077300067  0.6997824399068476  0.9111625268893065  1.0000
  O   O17       1.0  0.3234319099846629  0.47131198376198563  0.9267617719691972  1.0000
  O   O18       1.0  0.17656776377847908  0.9713111239556012  0.4267612806511494  1.0000
  O   O19       1.0  0.8234231444414706  0.47131025963333434  0.5732411287198645  1.0000
  O   O20       1.0  0.676578714574113  0.97131226946577  0.07324063738732181  1.0000
  O   O21       1.0  0.4979666145406299  0.4734325630038824  0.0745143171667593  1.0000
  O   O22       1.0  0.002038455908675  0.9734345879537543  0.5745138341108742  1.0000
  O   O23       1.0  0.9979669151785873  0.47343384604785393  0.42549098497811866  1.0000
  O   O24       1.0  0.5020387565416727  0.9734358709981945  0.9254929110338426  1.0000
  O   O25       1.0  0.2531078406370497  0.4753359840456852  0.21301673826318532  1.0000
  O   O26       1.0  0.2468940349310387  0.9753315658679393  0.7130158846778798  1.0000
  O   O27       1.0  0.7531179120557283  0.4753333868425285  0.2869841167347431  1.0000
  O   O28       1.0  0.7468870188647474  0.9753385340851181  0.7869848692381611  1.0000
