data_image0
_chemical_formula_structural       Zn10H8C8N36O8
_chemical_formula_sum              "Zn10 H8 C8 N36 O8"
_cell_length_a       8.478334710567305
_cell_length_b       9.115743059091061
_cell_length_c       14.252651923451102
_cell_angle_alpha    71.49330696877526
_cell_angle_beta     72.691788961659
_cell_angle_gamma    62.286837408220194

_space_group_name_H-M_alt    "P 1"
_space_group_IT_number       1

loop_
  _space_group_symop_operation_xyz
  'x, y, z'

loop_
  _atom_site_type_symbol
  _atom_site_label
  _atom_site_symmetry_multiplicity
  _atom_site_fract_x
  _atom_site_fract_y
  _atom_site_fract_z
  _atom_site_occupancy
  Zn  Zn1       1.0  0.15569837882824136  0.9213242900011877  0.6318061507714106  1.0000
  Zn  Zn2       1.0  0.708717653161962  0.5787868917992397  0.8680925363473194  1.0000
  Zn  Zn3       1.0  0.8443006014981906  0.07867664597795707  0.36819314378099227  1.0000
  Zn  Zn4       1.0  0.2912813271644693  0.421214044179905  0.13190675820508346  1.0000
  Zn  Zn5       1.0  0.7738686606137292  0.2829776299540823  0.5279695834819123  1.0000
  Zn  Zn6       1.0  0.5847407864641879  0.21699239237405976  0.9720655331222403  1.0000
  Zn  Zn7       1.0  0.22613133743787744  0.7170233054213139  0.4720299290434157  1.0000
  Zn  Zn8       1.0  0.41525851170972333  0.7830085410359258  0.02793468150446902  1.0000
  Zn  Zn9       1.0  0.8752981908928208  0.25004194493244103  0.7499660748549813  1.0000
  Zn  Zn10      1.0  0.12470166218156448  0.7499577205486929  0.2500342978878152  1.0000
  H   H1        1.0  0.05741154792402616  0.24829693408851478  0.5745886590659027  1.0000
  H   H2        1.0  0.8800812602916394  0.2519285706123355  0.9253125034616403  1.0000
  H   H3        1.0  0.9425872874251836  0.7517027319963743  0.42541149570396897  1.0000
  H   H4        1.0  0.11991975548514236  0.7480723641593129  0.07468722703661969  1.0000
  H   H5        1.0  0.1681316081438027  0.014385444180568599  0.4396240623531397  1.0000
  H   H6        1.0  0.6221708999180109  0.48569155501494515  0.060290422176265686  1.0000
  H   H7        1.0  0.8318649547020696  0.985615488471495  0.5603764184291079  1.0000
  H   H8        1.0  0.37782793543119936  0.5143081110699369  0.939709732593606  1.0000
  C   C1        1.0  0.34183417554971374  0.8146492852192179  0.8187774821150313  1.0000
  C   C2        1.0  0.9754519295613736  0.6853231719753408  0.6812611065722293  1.0000
  C   C3        1.0  0.6581641048990294  0.1853516487945086  0.18122251453876  1.0000
  C   C4        1.0  0.024547368612545035  0.3146777614346376  0.3187391080544799  1.0000
  C   C5        1.0  0.49294862166243547  0.6012165440096878  0.7256523865899352  1.0000
  C   C6        1.0  0.8199314299633191  0.8988435345958549  0.7743190816985432  1.0000
  C   C7        1.0  0.507050676511483  0.3987843894002906  0.2743478280367739  1.0000
  C   C8        1.0  0.18006897801153351  0.1011548629564416  0.22568144916034066  1.0000
  N   N1        1.0  0.47632291433558976  0.6600552836957904  0.8066091194401679  1.0000
  N   N2        1.0  0.9431685568300312  0.8399380930672107  0.6933909460170113  1.0000
  N   N3        1.0  0.5236763838383283  0.3399456497141884  0.1933910951865485  1.0000
  N   N4        1.0  0.056832313969529535  0.16006157181017497  0.3066096446987103  1.0000
  N   N5        1.0  0.2252109242566574  0.9312957678795826  0.7566341030296683  1.0000
  N   N6        1.0  0.9132130671739629  0.5687303401521361  0.7433758750918784  1.0000
  N   N7        1.0  0.7747890737949489  0.06870516749580699  0.24336540949565938  1.0000
  N   N8        1.0  0.0867864680529352  0.4312693278981711  0.2566235775766117  1.0000
  N   N9        1.0  0.11974958939980948  0.061572045761884894  0.8036199203395996  1.0000
  N   N10       1.0  0.9849723528599265  0.43848042489638317  0.6963737684116182  1.0000
  N   N11       1.0  0.8802512813997511  0.9384276191155009  0.19638067037612222  1.0000
  N   N12       1.0  0.015028754992620439  0.5615179746213245  0.3036260603458771  1.0000
  N   N13       1.0  0.16498873701869596  0.031298171284973385  0.8893952821549362  1.0000
  N   N14       1.0  0.08576964488551654  0.46873714782849857  0.6106094425066217  1.0000
  N   N15       1.0  0.8350122787580859  0.9687027634866748  0.11060444834331665  1.0000
  N   N16       1.0  0.9142298903413888  0.5312625202218014  0.38939001016186836  1.0000
  N   N17       1.0  0.3039875018024036  0.8775160234038919  0.901539416176611  1.0000
  N   N18       1.0  0.08321793471586172  0.622470626959888  0.5984909760137498  1.0000
  N   N19       1.0  0.6960117963715151  0.12248491000609359  0.09846079845009834  1.0000
  N   N20       1.0  0.9167829360836987  0.37752903791749753  0.40150961470197183  1.0000
  N   N21       1.0  0.3842352167626613  0.6781228241950217  0.6551162664567373  1.0000
  N   N22       1.0  0.7175046435401241  0.8219628502663807  0.8448273644075711  1.0000
  N   N23       1.0  0.6157652441136463  0.32187937850547144  0.34488330592542843  1.0000
  N   N24       1.0  0.2824957644347278  0.1780355472859156  0.1551731664513056  1.0000
  N   N25       1.0  0.45207905749983723  0.5795229143807104  0.588321224152466  1.0000
  N   N26       1.0  0.6198980728087804  0.9205562880726246  0.9116151096597563  1.0000
  N   N27       1.0  0.5479209405517623  0.4204780209946791  0.41167828837286174  1.0000
  N   N28       1.0  0.38010178026560476  0.0794433774085093  0.0883852630830404  1.0000
  N   N29       1.0  0.5945783081504529  0.44688894278792884  0.6162658742457056  1.0000
  N   N30       1.0  0.6577183433724583  0.053191000192960296  0.8836967684509247  1.0000
  N   N31       1.0  0.4054209900234582  0.5531119906220496  0.383734340381011  1.0000
  N   N32       1.0  0.3422822095796151  0.9468086672535916  0.11630290219049044  1.0000
  N   N33       1.0  0.625681959406123  0.45356623130084006  0.7020045252880821  1.0000
  N   N34       1.0  0.7812989788584447  0.04650815102403529  0.7979683196056868  1.0000
  N   N35       1.0  0.37431632104261336  0.5464347027128937  0.2979954713657023  1.0000
  N   N36       1.0  0.21870314671927815  0.953490247889931  0.20203172712473363  1.0000
  O   O1        1.0  0.9843597872120927  0.18295710301246962  0.609236180446267  1.0000
  O   O2        1.0  0.7763623954937061  0.31720175307869164  0.8906488691391985  1.0000
  O   O3        1.0  0.01564076573998102  0.8170425644340823  0.3907634901951482  1.0000
  O   O4        1.0  0.2236374575806792  0.682797912402442  0.10935150360359813  1.0000
  O   O5        1.0  0.23836163485034237  0.916198316096775  0.4859807886007204  1.0000
  O   O6        1.0  0.6406326557112504  0.5838450930634664  0.013917327879909173  1.0000
  O   O7        1.0  0.7616373454760892  0.08380261988236978  0.5140185059516824  1.0000
  O   O8        1.0  0.35936789724082285  0.4161545743830855  0.986082342761506  1.0000
