data_image0
_chemical_formula_structural       Zn6H96C72N12O30
_chemical_formula_sum              "Zn6 H96 C72 N12 O30"
_cell_length_a       10.42477008700002
_cell_length_b       17.4524146313968
_cell_length_c       17.452183137391774
_cell_angle_alpha    120.00044776250654
_cell_angle_beta     89.9999950939081
_cell_angle_gamma    90.00000684404648

_space_group_name_H-M_alt    "P 1"
_space_group_IT_number       1

loop_
  _space_group_symop_operation_xyz
  'x, y, z'

loop_
  _atom_site_type_symbol
  _atom_site_label
  _atom_site_symmetry_multiplicity
  _atom_site_fract_x
  _atom_site_fract_y
  _atom_site_fract_z
  _atom_site_occupancy
  Zn  Zn1       1.0  0.9081379825246643  0.07533044321985459  0.5393083731527921  1.0000
  Zn  Zn2       1.0  0.7413851960651526  0.5392959624388637  0.4639862668847881  1.0000
  Zn  Zn3       1.0  0.5748126569505843  0.46397718627929424  0.9246748781472576  1.0000
  Zn  Zn4       1.0  0.4081375976064905  0.9246694321210497  0.4606916900816032  1.0000
  Zn  Zn5       1.0  0.24138470758733627  0.46070423352347933  0.5360134689547422  1.0000
  Zn  Zn6       1.0  0.0748122496404378  0.5360224265127087  0.07532428811668984  1.0000
  H   H1        1.0  0.9059480873602863  0.9307118110688394  0.5993493294115027  1.0000
  H   H2        1.0  0.7392498884929138  0.5993337807447006  0.6686187229479755  1.0000
  H   H3        1.0  0.5726688066086111  0.668634142511202  0.06928518262632379  1.0000
  H   H4        1.0  0.4059475400602608  0.06928806413824865  0.40065073386787725  1.0000
  H   H5        1.0  0.23924941737868008  0.4006664150871657  0.3313810129354167  1.0000
  H   H6        1.0  0.07266919488739627  0.33136628532231066  0.930715460495122  1.0000
  H   H7        1.0  0.020245110484125896  0.9263695699763658  0.4586820782309501  1.0000
  H   H8        1.0  0.8535190709768157  0.4587211458838424  0.5323319248901511  1.0000
  H   H9        1.0  0.6869552460009415  0.532342544697535  0.07363983623601193  1.0000
  H   H10       1.0  0.5202454947740378  0.07363028166198399  0.5413179929703986  1.0000
  H   H11       1.0  0.3535195676682434  0.5412784839388181  0.46766723564942236  1.0000
  H   H12       1.0  0.18695566215052387  0.4676576479388428  0.9263599007214577  1.0000
  H   H13       1.0  0.21487193782029118  0.6862844705774478  0.22083381653973078  1.0000
  H   H14       1.0  0.04815452293806999  0.22087031626966083  0.5345832751849143  1.0000
  H   H15       1.0  0.8814966896773271  0.5345957060759686  0.3137847565695466  1.0000
  H   H16       1.0  0.7148713767192802  0.31371572376478  0.7791659198443597  1.0000
  H   H17       1.0  0.5481540999016588  0.7791295370740912  0.46541679544321113  1.0000
  H   H18       1.0  0.3814961805845201  0.4654047406287488  0.6862158802088627  1.0000
  H   H19       1.0  0.18021602575130657  0.8460966141462549  0.33045782147110003  1.0000
  H   H20       1.0  0.013518761648846599  0.33050197577769314  0.4844022370812766  1.0000
  H   H21       1.0  0.8469012089370476  0.4843769840600203  0.15394346155567715  1.0000
  H   H22       1.0  0.6802154484340122  0.1539035780782782  0.6695419156247906  1.0000
  H   H23       1.0  0.5135183094949909  0.6694982062606485  0.5155975034384211  1.0000
  H   H24       1.0  0.34690068694551  0.5156232183499796  0.846056272116648  1.0000
  H   H25       1.0  0.805758844272475  0.8222114725375889  0.21341837743325695  1.0000
  H   H26       1.0  0.6390769172039015  0.21342502609520148  0.39121582217133977  1.0000
  H   H27       1.0  0.4724775926527655  0.3912004766945003  0.1777628459135059  1.0000
  H   H28       1.0  0.3057592225335739  0.17778839654736342  0.7865816879039045  1.0000
  H   H29       1.0  0.1390774426812911  0.78657483280449  0.6087842465893158  1.0000
  H   H30       1.0  0.9724780436144441  0.6087997333889988  0.822236885179592  1.0000
  H   H31       1.0  0.8530567613196425  0.6639065435094623  0.11212899877605757  1.0000
  H   H32       1.0  0.6863604397855809  0.11216659894832759  0.4482629644243588  1.0000
  H   H33       1.0  0.5196623206517117  0.4482215736200601  0.3360640352099651  1.0000
  H   H34       1.0  0.3530571566918326  0.33609365927670615  0.8878707347698409  1.0000
  H   H35       1.0  0.1863609936918991  0.8878332628406653  0.5517371033651343  1.0000
  H   H36       1.0  0.019662791276807895  0.5517786087937182  0.6639357051835404  1.0000
  H   H37       1.0  0.0440067982120169  0.9845971431540762  0.3640707784729569  1.0000
  H   H38       1.0  0.8772941771553561  0.3640834099331869  0.37950067571094337  1.0000
  H   H39       1.0  0.7107485653948729  0.3795015091310461  0.01541967917088983  1.0000
  H   H40       1.0  0.5440071572846109  0.015402709936253797  0.6359292922403483  1.0000
  H   H41       1.0  0.3772937115799095  0.6359164635229746  0.6204993881569578  1.0000
  H   H42       1.0  0.21074804449008155  0.620499257950982  0.9845806302947223  1.0000
  H   H43       1.0  0.8771282896206286  0.9677238352716416  0.3372588864414894  1.0000
  H   H44       1.0  0.7104252672415257  0.3372524783376959  0.3695570541313912  1.0000
  H   H45       1.0  0.5438902070371726  0.36956463341690693  0.03229013804871531  1.0000
  H   H46       1.0  0.3771286565642241  0.03227603817440877  0.662741177429808  1.0000
  H   H47       1.0  0.2104257648566232  0.6627473849218004  0.630443013163834  1.0000
  H   H48       1.0  0.043889690539806694  0.6304355504773086  0.9677096018471829  1.0000
  H   H49       1.0  0.8037348095877874  0.8397025027547116  0.3664419329888418  1.0000
  H   H50       1.0  0.6370394677640474  0.3664149666951957  0.5267638028872881  1.0000
  H   H51       1.0  0.4704689300593898  0.526756136910933  0.1603393900542827  1.0000
  H   H52       1.0  0.30373424705808105  0.16029793919828694  0.6335587053867255  1.0000
  H   H53       1.0  0.13703902285540434  0.6335848920799593  0.4732362659152257  1.0000
  H   H54       1.0  0.9704683921682359  0.47324407304979843  0.8396603410800764  1.0000
  H   H55       1.0  0.7756190694933378  0.8147241495632399  0.5005101950038053  1.0000
  H   H56       1.0  0.6089371713294227  0.5005181787990977  0.6858323059497805  1.0000
  H   H57       1.0  0.442339786636019  0.6857917383759542  0.18526984919798656  1.0000
  H   H58       1.0  0.275619490450147  0.1852757176799854  0.4994898709524022  1.0000
  H   H59       1.0  0.10893768169325568  0.4994820090699079  0.3141674326101053  1.0000
  H   H60       1.0  0.9423392205299448  0.31420904285767653  0.8147304555109541  1.0000
  H   H61       1.0  0.872653343405254  0.7061054707124582  0.3544255391970097  1.0000
  H   H62       1.0  0.7059963743023019  0.3544398143276339  0.648354536816484  1.0000
  H   H63       1.0  0.5393107386370204  0.6483568004929553  0.2939127276445745  1.0000
  H   H64       1.0  0.37265376511206927  0.2938944024601468  0.6455745247662035  1.0000
  H   H65       1.0  0.20599594923646686  0.6455609524640025  0.35164577274672854  1.0000
  H   H66       1.0  0.039311163204501995  0.3516439561132145  0.7060875853422033  1.0000
  H   H67       1.0  0.9448573271089414  0.7037991881522317  0.4454956079229788  1.0000
  H   H68       1.0  0.778220511501921  0.44550841602730173  0.7417442905233428  1.0000
  H   H69       1.0  0.6115348826020082  0.7417415164491389  0.29624091819357545  1.0000
  H   H70       1.0  0.4448577623457552  0.29620068943246725  0.5545044545572252  1.0000
  H   H71       1.0  0.27822104088626526  0.5544925973584185  0.25825692137308914  1.0000
  H   H72       1.0  0.11153528883512817  0.25825834076756143  0.7037591511327718  1.0000
  H   H73       1.0  0.025536341956517092  0.7565804013036725  0.3938463736048233  1.0000
  H   H74       1.0  0.8588707337417815  0.39385385325886085  0.637278983056511  1.0000
  H   H75       1.0  0.6922061994389068  0.6372954448786816  0.24346950243497636  1.0000
  H   H76       1.0  0.5255367508845196  0.24341945065800982  0.6061536974878547  1.0000
  H   H77       1.0  0.35887125846106466  0.6061465920633111  0.3627216541866075  1.0000
  H   H78       1.0  0.1922066189787586  0.36270441726752267  0.7565305652344492  1.0000
  H   H79       1.0  0.9934760655510855  0.1828490627221129  0.8291728849928218  1.0000
  H   H80       1.0  0.826727142050224  0.8291234450707137  0.6462439200402628  1.0000
  H   H81       1.0  0.6600999355175007  0.6463071155270086  0.8171638469021474  1.0000
  H   H82       1.0  0.4934757007358641  0.8171513908252237  0.17082774948563897  1.0000
  H   H83       1.0  0.3267266217881328  0.17087585230373753  0.3537555718694136  1.0000
  H   H84       1.0  0.16009947632976917  0.3536930754683141  0.18283589060690986  1.0000
  H   H85       1.0  0.8877912324024493  0.11016300483596107  0.8445721396329943  1.0000
  H   H86       1.0  0.7210921936888824  0.8445489000702152  0.7343354299686026  1.0000
  H   H87       1.0  0.5543834589552004  0.7343710256551574  0.8898005637242504  1.0000
  H   H88       1.0  0.38779088432764297  0.8898374422533948  0.15542849701613198  1.0000
  H   H89       1.0  0.22109168298464246  0.15545096384106213  0.265664637107541  1.0000
  H   H90       1.0  0.0543839518401441  0.2656288280692536  0.11019950677592763  1.0000
  H   H91       1.0  0.8270935005390851  0.20320023676820398  0.8397896280662279  1.0000
  H   H92       1.0  0.6603493737959525  0.8397764483986376  0.6365372298472421  1.0000
  H   H93       1.0  0.49373271777800903  0.6365098708606353  0.7967618562502066  1.0000
  H   H94       1.0  0.3270931331789696  0.7967993028093615  0.1602107676525577  1.0000
  H   H95       1.0  0.1603488500112533  0.16022365398161745  0.36346374229314893  1.0000
  H   H96       1.0  0.9937322492754956  0.3634900097106168  0.20323820522615674  1.0000
  C   C1        1.0  0.1258541505102428  0.7195624070297484  0.22221931805497508  1.0000
  C   C2        1.0  0.9591280931981385  0.2222581971354031  0.5027002151388301  1.0000
  C   C3        1.0  0.7924798575941949  0.5027035262207348  0.28050683720562114  1.0000
  C   C4        1.0  0.6258545422092254  0.28043745106194246  0.7777807509772642  1.0000
  C   C5        1.0  0.45912767365447843  0.777742012132336  0.49729951622845897  1.0000
  C   C6        1.0  0.2924793501013596  0.49729634205275625  0.7194932284042891  1.0000
  C   C7        1.0  0.10606858684779037  0.8084190649390024  0.2821276383399862  1.0000
  C   C8        1.0  0.9393847401843942  0.28215247210692235  0.47372238703015757  1.0000
  C   C9        1.0  0.7727604813401143  0.4737327837730021  0.19163019414665428  1.0000
  C   C10       1.0  0.6060689693806792  0.1915807919436716  0.717872431098634  1.0000
  C   C11       1.0  0.4393843045088629  0.7178474051433456  0.5262776755624544  1.0000
  C   C12       1.0  0.2727609261384245  0.5262674141065914  0.8083695410484494  1.0000
  C   C13       1.0  0.9898981548072638  0.8481246820304307  0.2811960240184915  1.0000
  C   C14       1.0  0.8232162337826807  0.2812130308836771  0.43309285536326303  1.0000
  C   C15       1.0  0.6566370558321138  0.4330810425337077  0.15189313768033233  1.0000
  C   C16       1.0  0.4898975783607185  0.15187519830650592  0.7188040375366282  1.0000
  C   C17       1.0  0.32321675171820635  0.7187868392680273  0.566907209615337  1.0000
  C   C18       1.0  0.15663750305460408  0.5669191482500437  0.8481065998998358  1.0000
  C   C19       1.0  0.8986472208171463  0.7957703170063581  0.21771715110224218  1.0000
  C   C20       1.0  0.7319700911929985  0.2177203055106673  0.42194803651419477  1.0000
  C   C21       1.0  0.565385158395287  0.4219066159150345  0.2042162709676418  1.0000
  C   C22       1.0  0.39864760498096524  0.20423013074638885  0.7822834853239087  1.0000
  C   C23       1.0  0.2319696609681543  0.7822795590653229  0.5780520303385258  1.0000
  C   C24       1.0  0.0653846561064668  0.5780935692926548  0.7957834684867747  1.0000
  C   C25       1.0  0.9245729676722192  0.7066284786338244  0.15998492522348326  1.0000
  C   C26       1.0  0.7578632201647295  0.16002186046635106  0.4533850439588035  1.0000
  C   C27       1.0  0.5912312887004917  0.45333509474847483  0.2933580175661702  1.0000
  C   C28       1.0  0.42457240211769687  0.29337172852238774  0.8400148068535386  1.0000
  C   C29       1.0  0.2578628059856456  0.8399780056918617  0.5466150223621042  1.0000
  C   C30       1.0  0.0912317521747994  0.5466647612275608  0.7066420521771873  1.0000
  C   C31       1.0  0.9617478977945026  0.9410938439983527  0.3535514857302643  1.0000
  C   C32       1.0  0.795048714811081  0.3535582818205825  0.4124831716423428  1.0000
  C   C33       1.0  0.6285146176889852  0.412485479341747  0.05893516920390601  1.0000
  C   C34       1.0  0.4617482723997242  0.058906034618459516  0.6464485764030241  1.0000
  C   C35       1.0  0.2950492153265926  0.6464415866099176  0.5875168939147954  1.0000
  C   C36       1.0  0.12851409643506168  0.5875147097235283  0.9410645689538838  1.0000
  C   C37       1.0  0.8296432944429668  0.8872301729677049  0.4354340837111579  1.0000
  C   C38       1.0  0.662935487875231  0.4354147763271571  0.5482483304521394  1.0000
  C   C39       1.0  0.49637166514749953  0.5482228605154518  0.11281311730105156  1.0000
  C   C40       1.0  0.3296427323127419  0.11277027056846123  0.564566554132277  1.0000
  C   C41       1.0  0.1629359915098263  0.5645850840304335  0.4517517378184834  1.0000
  C   C42       1.0  0.9963711161447294  0.4517773510280919  0.8871866133012957  1.0000
  C   C43       1.0  0.7077307763088642  0.9421921188271868  0.4749334776194091  1.0000
  C   C44       1.0  0.5410459942315738  0.47489958876752075  0.5327391593053931  1.0000
  C   C45       1.0  0.37443900242215716  0.5327696405523384  0.057873461988791126  1.0000
  C   C46       1.0  0.2077311681133764  0.057807744267655926  0.5250665897311534  1.0000
  C   C47       1.0  0.041045528493477  0.5251005949529031  0.4672605806489187  1.0000
  C   C48       1.0  0.8744394078782562  0.46723023272937775  0.942126601937744  1.0000
  C   C49       1.0  0.8662052430859077  0.8306121395692188  0.47884134221830976  1.0000
  C   C50       1.0  0.6995185460379146  0.4788332221647381  0.6482705898019603  1.0000
  C   C51       1.0  0.5329211582019937  0.6482408752910231  0.169403035691019  1.0000
  C   C52       1.0  0.3662046985032106  0.16938716021758182  0.5211581488805236  1.0000
  C   C53       1.0  0.19951809609271712  0.5211669712393032  0.35172914689747603  1.0000
  C   C54       1.0  0.0329215649249548  0.35175930793294446  0.8305967044301638  1.0000
  C   C55       1.0  0.9315496058591319  0.7441059830864276  0.41395925639881886  1.0000
  C   C56       1.0  0.764906071186381  0.4139683755763315  0.6699018735912503  1.0000
  C   C57       1.0  0.598234824801814  0.6699020646306196  0.2559389287913732  1.0000
  C   C58       1.0  0.4315500285126745  0.2558938936850907  0.5860408063547168  1.0000
  C   C59       1.0  0.26490659656614207  0.586032636995796  0.3300993385786413  1.0000
  C   C60       1.0  0.09823523961278367  0.33009754959265075  0.7440602369915011  1.0000
  C   C61       1.0  0.8830131971757423  0.09420252141048016  0.7136566167090947  1.0000
  C   C62       1.0  0.716270020151363  0.7136261913224259  0.619397958950543  1.0000
  C   C63       1.0  0.5496783065824501  0.6194822142664479  0.9058381360938839  1.0000
  C   C64       1.0  0.3830128335046084  0.9057973523951475  0.28634344704134657  1.0000
  C   C65       1.0  0.2162704783794211  0.2863736722942249  0.380602108224636  1.0000
  C   C66       1.0  0.0496778654823373  0.38051763917042086  0.09416193450294233  1.0000
  C   C67       1.0  0.8994087610821282  0.1502515719587051  0.8128976150368457  1.0000
  C   C68       1.0  0.7326521628440971  0.8128533865345418  0.6625671244813702  1.0000
  C   C69       1.0  0.5660067325799715  0.662611979730471  0.8497344638465307  1.0000
  C   C70       1.0  0.39940840044783243  0.849748302848795  0.18710244837684087  1.0000
  C   C71       1.0  0.23265164817699707  0.1871464780831218  0.3374329423573457  1.0000
  C   C72       1.0  0.06600723406055657  0.33738820551522514  0.1502652755951104  1.0000
  N   N1        1.0  0.03615528901868  0.668725111884342  0.16224970766500488  1.0000
  N   N2        1.0  0.8694321049076805  0.16229776228948373  0.493576546447663  1.0000
  N   N3        1.0  0.7027704405292283  0.49354671331610694  0.331308522924452  1.0000
  N   N4        1.0  0.536155682274611  0.3312744985454898  0.8377494593929241  1.0000
  N   N5        1.0  0.3694316960412819  0.8377021106862585  0.5064235175817159  1.0000
  N   N6        1.0  0.20276994215718253  0.506453149475611  0.6686915445280092  1.0000
  N   N7        1.0  0.9372821245250265  0.9432427138534507  0.43854354052048444  1.0000
  N   N8        1.0  0.7705541723619331  0.4385410246297497  0.495331574751539  1.0000
  N   N9        1.0  0.6040028145568286  0.4953252412263467  0.05678218992813563  1.0000
  N   N10       1.0  0.4372815516436289  0.056757163268329656  0.5614565221153214  1.0000
  N   N11       1.0  0.2705537085239982  0.5614582693121974  0.504667918311874  1.0000
  N   N12       1.0  0.10400227643351198  0.5046746155300709  0.9432178795529181  1.0000
  O   O1        1.0  0.7131255251380321  0.02631610394456633  0.5142864339842531  1.0000
  O   O2        1.0  0.5465156663698848  0.5142536564699753  0.4879714717666346  1.0000
  O   O3        1.0  0.3798481642378134  0.48800979720079596  0.9737406234119417  1.0000
  O   O4        1.0  0.21312610568124768  0.9736837594799397  0.48571363325551425  1.0000
  O   O5        1.0  0.04651518634015869  0.4857461967736326  0.5120285988951493  1.0000
  O   O6        1.0  0.8798487100726432  0.511989172608658  0.0262591982264766  1.0000
  O   O7        1.0  0.6069976158385869  0.897064573119131  0.46292361556085365  1.0000
  O   O8        1.0  0.44025240085047557  0.4628816296239507  0.5657843127664961  1.0000
  O   O9        1.0  0.2736943346274997  0.5658673673423281  0.1029781536803398  1.0000
  O   O10       1.0  0.10699801494100568  0.10293528382032228  0.5370764538586811  1.0000
  O   O11       1.0  0.9402519339114335  0.5371182476793379  0.4342157498083025  1.0000
  O   O12       1.0  0.7736937806860738  0.43413225760253477  0.8970210084987682  1.0000
  O   O13       1.0  0.9513217480183157  0.8773746630419056  0.5512975001052779  1.0000
  O   O14       1.0  0.7846360161511255  0.5512855624036632  0.673909669521457  1.0000
  O   O15       1.0  0.6180367103287023  0.6739261807223756  0.12263172684102133  1.0000
  O   O16       1.0  0.4513212044852395  0.12262554574881791  0.44870223142235227  1.0000
  O   O17       1.0  0.2846355554014152  0.44871463620156493  0.32609006542974583  1.0000
  O   O18       1.0  0.11803710520501198  0.32607367689163175  0.8773683423517794  1.0000
  O   O19       1.0  0.9131567946940962  0.1330325123715141  0.6691872575692982  1.0000
  O   O20       1.0  0.7464049788462573  0.6691616828004924  0.536099123230528  1.0000
  O   O21       1.0  0.5798142174577874  0.5361842715433837  0.8670224174906805  1.0000
  O   O22       1.0  0.41315737613275866  0.8669679362678622  0.3308133785588366  1.0000
  O   O23       1.0  0.24640543400940368  0.33083818265758685  0.4639009433257044  1.0000
  O   O24       1.0  0.07981378743945558  0.46381534155424486  0.13297674867054346  1.0000
  O   O25       1.0  0.8411398462483175  0.016469441414294322  0.6804918253724421  1.0000
  O   O26       1.0  0.6744935527303254  0.6804655963847139  0.6639942585913302  1.0000
  O   O27       1.0  0.507922948138244  0.664093608986917  0.9836004256607607  1.0000
  O   O28       1.0  0.3411394933574171  0.9835310028243855  0.3195088122348649  1.0000
  O   O29       1.0  0.17449402398721495  0.3195336916873828  0.336005236445068  1.0000
  O   O30       1.0  0.007922509279218599  0.335906572709483  0.01639931497386733  1.0000
