data_image0
_chemical_formula_structural       Cu4H44C44N8O16
_chemical_formula_sum              "Cu4 H44 C44 N8 O16"
_cell_length_a       8.594577565839616
_cell_length_b       13.221808588968278
_cell_length_c       15.341507668634348
_cell_angle_alpha    115.52078861183593
_cell_angle_beta     95.09947635696298
_cell_angle_gamma    89.9955275783307

_space_group_name_H-M_alt    "P 1"
_space_group_IT_number       1

loop_
  _space_group_symop_operation_xyz
  'x, y, z'

loop_
  _atom_site_type_symbol
  _atom_site_label
  _atom_site_symmetry_multiplicity
  _atom_site_fract_x
  _atom_site_fract_y
  _atom_site_fract_z
  _atom_site_occupancy
  Cu  Cu1       1.0  0.03904207848868419  0.5058101244197032  0.4223526711717652  1.0000
  Cu  Cu2       1.0  0.460889388772209  0.08343577804924249  0.5776631350958468  1.0000
  Cu  Cu3       1.0  0.9609584572809591  0.4941901374573162  0.5776465593428384  1.0000
  Cu  Cu4       1.0  0.5391064175248416  0.9165615283777414  0.42233229014451723  1.0000
  H   H1        1.0  0.1674839062247813  0.3521117175962657  0.23000785138168572  1.0000
  H   H2        1.0  0.3325918126269372  0.12201738915832977  0.7700539585050947  1.0000
  H   H3        1.0  0.832513133088831  0.6478916291567954  0.7699944682461749  1.0000
  H   H4        1.0  0.6674123766666754  0.8779827665311757  0.2299476882744855  1.0000
  H   H5        1.0  0.3258204395342048  0.3681229025844317  0.10514455026045512  1.0000
  H   H6        1.0  0.17434560517853007  0.26290348482893916  0.8950068477598024  1.0000
  H   H7        1.0  0.6741766952778222  0.6318787411298245  0.8948577427474476  1.0000
  H   H8        1.0  0.8256573220473767  0.7370989682112494  0.10499542041802103  1.0000
  H   H9        1.0  0.2754055011788593  0.7269386566841688  0.2501791284439534  1.0000
  H   H10       1.0  0.2244270079397666  0.4766786537311771  0.7498972654292118  1.0000
  H   H11       1.0  0.724600060314131  0.2730633573476879  0.7498277418201981  1.0000
  H   H12       1.0  0.7755723596346655  0.5233215514875127  0.2501019074744876  1.0000
  H   H13       1.0  0.120866336695272  0.6949258547456267  0.3668234565541155  1.0000
  H   H14       1.0  0.3790042188403219  0.32808626704398586  0.6332590725002447  1.0000
  H   H15       1.0  0.8791402942426814  0.30507661704295685  0.6331821931625045  1.0000
  H   H16       1.0  0.6209941278513257  0.6719129543836857  0.366741633835595  1.0000
  H   H17       1.0  0.40988273101087463  0.6510314942932922  0.10193681287438493  1.0000
  H   H18       1.0  0.090248297188424  0.5490232457518545  0.8980749090192718  1.0000
  H   H19       1.0  0.590115714431029  0.3489673260359749  0.8980651716198909  1.0000
  H   H20       1.0  0.9097556007321755  0.45098006614345115  0.10192486045259129  1.0000
  H   H21       1.0  0.28177984342193696  0.7545595079796357  0.5876946724072385  1.0000
  H   H22       1.0  0.21838750671548718  0.16669122365404113  0.4121662922880631  1.0000
  H   H23       1.0  0.7182219560413329  0.24543910751690126  0.41230458909831924  1.0000
  H   H24       1.0  0.7816060668191582  0.8333075212685086  0.5878322530565114  1.0000
  H   H25       1.0  0.39807894974591557  0.8355938093353287  0.6978144933600705  1.0000
  H   H26       1.0  0.1020443905604509  0.13765980178180826  0.30207147269315027  1.0000
  H   H27       1.0  0.6019275273759418  0.16440698570513493  0.30218695575671023  1.0000
  H   H28       1.0  0.8979538476254306  0.8623359149230226  0.6979240411490722  1.0000
  H   H29       1.0  0.515978912968528  0.6442798527978225  0.5189981535190284  1.0000
  H   H30       1.0  0.9842342052307488  0.12525138715968595  0.4809566150716408  1.0000
  H   H31       1.0  0.48402302730348623  0.3557152316852025  0.48100008947280065  1.0000
  H   H32       1.0  0.01576179206313808  0.8747425131896877  0.5190387569288148  1.0000
  H   H33       1.0  0.6261613428872792  0.7143922311321449  0.6328382084646621  1.0000
  H   H34       1.0  0.8739644857957316  0.0815354410026359  0.3671464336168881  1.0000
  H   H35       1.0  0.3738428835870664  0.28560284173162387  0.3671591844751633  1.0000
  H   H36       1.0  0.12602908286115877  0.9184613510092986  0.6328501545600957  1.0000
  H   H37       1.0  0.521582766253168  0.5316118604702423  0.6123287517544967  1.0000
  H   H38       1.0  0.9782833371947605  0.9192995454199392  0.38772440311804957  1.0000
  H   H39       1.0  0.4784143118670911  0.4683870544272892  0.3876699664228056  1.0000
  H   H40       1.0  0.0217102298362093  0.08069659562179493  0.6122715326697374  1.0000
  H   H41       1.0  0.4385188627267809  0.63972751795486  0.7099332269691417  1.0000
  H   H42       1.0  0.06139341021815879  0.9296097421160354  0.2900428360862577  1.0000
  H   H43       1.0  0.5614829367364891  0.360271097541684  0.2900660345364088  1.0000
  H   H44       1.0  0.938602690703732  0.07038571004555641  0.7099557712402174  1.0000
  C   C1        1.0  0.19424752718936844  0.4330177888550891  0.23047043922738913  1.0000
  C   C2        1.0  0.30578805483528987  0.20248474855594595  0.7696171619899701  1.0000
  C   C3        1.0  0.8057518485146603  0.5669856712146242  0.7695319956222805  1.0000
  C   C4        1.0  0.6942159385837313  0.7975168603005612  0.23038258086193503  1.0000
  C   C5        1.0  0.28206978195814264  0.442044475564991  0.16231482683546966  1.0000
  C   C6        1.0  0.2180285388843757  0.2796480609401045  0.8378147618822711  1.0000
  C   C7        1.0  0.7179297426842268  0.5579587083422339  0.837689851446463  1.0000
  C   C8        1.0  0.7819734597053128  0.7203504033298458  0.16218770832934842  1.0000
  C   C9        1.0  0.312406701325898  0.5488792946804466  0.1671201151392694  1.0000
  C   C10       1.0  0.1876354392575266  0.38168042204508607  0.8329792145522178  1.0000
  C   C11       1.0  0.6875974912195417  0.4511221629494671  0.8328828364187048  1.0000
  C   C12       1.0  0.8123684554112387  0.6183215879098114  0.1670192501412515  1.0000
  C   C13       1.0  0.25364329851444006  0.6418305824136326  0.24170863894138253  1.0000
  C   C14       1.0  0.24627610725222834  0.4000366453150619  0.7583744591234025  1.0000
  C   C15       1.0  0.7463620671039733  0.35817288478522596  0.7582963273950867  1.0000
  C   C16       1.0  0.7537234578227158  0.5999627577068338  0.2416272700971618  1.0000
  C   C17       1.0  0.16768376848216343  0.6248471158723135  0.30733569904602837  1.0000
  C   C18       1.0  0.3322509058724351  0.31747209533426707  0.6927420373744085  1.0000
  C   C19       1.0  0.8323193125598323  0.3751570139160022  0.6926707697316418  1.0000
  C   C20       1.0  0.6677495829609584  0.6825293435472586  0.3072575326447692  1.0000
  C   C21       1.0  0.39939064488021364  0.5657921932060006  0.0969608201603265  1.0000
  C   C22       1.0  0.1006986300401493  0.4687717067030731  0.903122346639691  1.0000
  C   C23       1.0  0.6006017476672625  0.4342213424370343  0.9030517072510378  1.0000
  C   C24       1.0  0.8992946689293149  0.5312253245862095  0.0968896016874865  1.0000
  C   C25       1.0  0.4435312691599194  0.8653513264250137  0.5759965972168857  1.0000
  C   C26       1.0  0.0567473028294998  0.2892963259653171  0.42392211463534585  1.0000
  C   C27       1.0  0.5564681049181956  0.13465148267449928  0.42400518524359404  1.0000
  C   C28       1.0  0.9432509418600501  0.7107019946203439  0.5760760087636642  1.0000
  C   C29       1.0  0.4022163998504454  0.7861381632483315  0.6193729903831484  1.0000
  C   C30       1.0  0.09795350027234662  0.16665656505837484  0.38052058244790743  1.0000
  C   C31       1.0  0.5977865694339497  0.21386115987674262  0.38062698112251075  1.0000
  C   C32       1.0  0.9020423060246969  0.8333407413686158  0.6194748427924566  1.0000
  C   C33       1.0  0.5071392707413124  0.6864199710470374  0.5974030397251158  1.0000
  C   C34       1.0  0.9930113983664485  0.08895565110125848  0.40254706546092933  1.0000
  C   C35       1.0  0.4928636969171619  0.3135787011078293  0.40259627939134657  1.0000
  C   C36       1.0  0.006983291549396104  0.9110423745735188  0.5974499198315399  1.0000
  C   C37       1.0  0.443332461948458  0.6023939577270454  0.6309310356059968  1.0000
  C   C38       1.0  0.056659905652111285  0.9713416300849788  0.3690495535928235  1.0000
  C   C39       1.0  0.5566681207574362  0.397605127145475  0.36906785540403325  1.0000
  C   C40       1.0  0.943334834451818  0.028656520525693435  0.6309483969734657  1.0000
  C   C41       1.0  0.28030956386269423  0.5559711959938766  0.5823887823025019  1.0000
  C   C42       1.0  0.2196529540974979  0.9733473643409455  0.41758617501061235  1.0000
  C   C43       1.0  0.7196888378947933  0.444030103280312  0.4176148464747485  1.0000
  C   C44       1.0  0.7803394075575197  0.026653802868196318  0.5824139570060184  1.0000
  N   N1        1.0  0.1369099955244408  0.5225154647561112  0.3018567304410951  1.0000
  N   N2        1.0  0.36304868989114414  0.22060315221611396  0.6982163731130768  1.0000
  N   N3        1.0  0.8630929835154645  0.4774877641901866  0.6981471553997453  1.0000
  N   N4        1.0  0.6369520919411756  0.7793957814298125  0.30178572660302183  1.0000
  N   N5        1.0  0.46251096146393433  0.48311551052847795  0.030038037773664383  1.0000
  N   N6        1.0  0.03751976939003751  0.45307363186950766  0.9700016858021814  1.0000
  N   N7        1.0  0.5374968165322899  0.5168785553057659  0.9699591884943147  1.0000
  N   N8        1.0  0.9624930256513051  0.5469303108096852  0.02999116187099559  1.0000
  O   O1        1.0  0.48964700958838125  0.8224435909985174  0.49127444006659726  1.0000
  O   O2        1.0  0.010691106496444997  0.33110775258783315  0.5086536172433114  1.0000
  O   O3        1.0  0.5103568736989531  0.17755386216494873  0.508719457902501  1.0000
  O   O4        1.0  0.9893127331064802  0.6688921795205471  0.49134192500875423  1.0000
  O   O5        1.0  0.2521430942145173  0.5415195628566706  0.4948383367431859  1.0000
  O   O6        1.0  0.2477982424213963  0.046375438370979745  0.5051483605589199  1.0000
  O   O7        1.0  0.7478562749858356  0.4584812933322269  0.5051614885497032  1.0000
  O   O8        1.0  0.7521940139796967  0.9536235260557362  0.4948478837424874  1.0000
  O   O9        1.0  0.42373124060181055  0.9691269676385802  0.6275915297594779  1.0000
  O   O10       1.0  0.0765777668691854  0.3415148896210455  0.3723508751376414  1.0000
  O   O11       1.0  0.5762669943322365  0.030867447125849903  0.37240267930435783  1.0000
  O   O12       1.0  0.923422563270357  0.6584829196017381  0.627642537114106  1.0000
  O   O13       1.0  0.18426294606803145  0.5371053461362506  0.6328866840185441  1.0000
  O   O14       1.0  0.3157395678823463  0.904003014081425  0.3670731113025881  1.0000
  O   O15       1.0  0.815736426384163  0.4628968119930548  0.3671144460527458  1.0000
  O   O16       1.0  0.6842585796828756  0.09599635857282612  0.632924386327183  1.0000
