data_image0
_chemical_formula_structural       La4H172C144N16O40
_chemical_formula_sum              "La4 H172 C144 N16 O40"
_cell_length_a       8.946759350564871
_cell_length_b       16.943703023678513
_cell_length_c       31.482248369291757
_cell_angle_alpha    85.03151802475159
_cell_angle_beta     81.84569917839363
_cell_angle_gamma    74.69269562531133

_space_group_name_H-M_alt    "P 1"
_space_group_IT_number       1

loop_
  _space_group_symop_operation_xyz
  'x, y, z'

loop_
  _atom_site_type_symbol
  _atom_site_label
  _atom_site_symmetry_multiplicity
  _atom_site_fract_x
  _atom_site_fract_y
  _atom_site_fract_z
  _atom_site_occupancy
  La  La1       1.0  0.35445194814212044  0.12780603323083276  0.8811097591367129  1.0000
  La  La2       1.0  0.3632864467951435  0.3721753839505695  0.6188769987446676  1.0000
  La  La3       1.0  0.6455487017341922  0.8721928656768301  0.11889086599954621  1.0000
  La  La4       1.0  0.6367107474455123  0.6278259640775872  0.38112206327785  1.0000
  H   H1        1.0  0.6244137118743252  0.8212102065219754  0.43767113617755626  1.0000
  H   H2        1.0  0.8827179046295587  0.6785417497602708  0.06232820285889319  1.0000
  H   H3        1.0  0.37558521825155106  0.17878991968037636  0.5623310892422069  1.0000
  H   H4        1.0  0.1172775207965273  0.3214516343840898  0.9376722588128742  1.0000
  H   H5        1.0  0.08843358413415821  0.9387718113283652  0.6716783542278719  1.0000
  H   H6        1.0  0.6989512606424595  0.561217944801797  0.8283167973452308  1.0000
  H   H7        1.0  0.9115712162669709  0.06123014905175949  0.3283203700020465  1.0000
  H   H8        1.0  0.3010487900415058  0.438782178432632  0.17168284157978767  1.0000
  H   H9        1.0  0.7056238453628011  0.7916083488416631  0.6156116946532748  1.0000
  H   H10       1.0  0.11324469863923527  0.7082810468150456  0.8844586237868981  1.0000
  H   H11       1.0  0.2943719909532305  0.2083911633456097  0.384389414784188  1.0000
  H   H12       1.0  0.8867601114427618  0.2917209168464083  0.11554295865147421  1.0000
  H   H13       1.0  0.7473612865088766  0.6478754403671658  0.6668361423046321  1.0000
  H   H14       1.0  0.06227661709049665  0.8520274873209173  0.8332899018365509  1.0000
  H   H15       1.0  0.25264102787996723  0.35212468458784224  0.3331649927839635  1.0000
  H   H16       1.0  0.9377256237743693  0.14797508477806792  0.1667079446496871  1.0000
  H   H17       1.0  0.5732911443206421  0.7117343434818294  0.6912213526025254  1.0000
  H   H18       1.0  0.9763890733374365  0.7882601791405933  0.808860086024076  1.0000
  H   H19       1.0  0.4267129644182719  0.2882621073991203  0.3087817883836337  1.0000
  H   H20       1.0  0.02360766230493281  0.2117374967388272  0.19114266151960627  1.0000
  H   H21       1.0  0.970710665257684  0.9379423550046581  0.7631698762807914  1.0000
  H   H22       1.0  0.6719187965179002  0.5622010674261944  0.7368119196899556  1.0000
  H   H23       1.0  0.029291109479324007  0.06205654239345649  0.2368294326755915  1.0000
  H   H24       1.0  0.3280832123586849  0.4377996676869457  0.2631869756100755  1.0000
  H   H25       1.0  0.14610873923711415  0.8632169064515124  0.7497132384294147  1.0000
  H   H26       1.0  0.7590750104586661  0.6369317151716984  0.7502952463697099  1.0000
  H   H27       1.0  0.8538972487921798  0.1367826016291644  0.250284282435814  1.0000
  H   H28       1.0  0.24092670258652757  0.3630696333808957  0.2497042673502037  1.0000
  H   H29       1.0  0.5964651036087573  0.9914120838697754  0.7282430941522762  1.0000
  H   H30       1.0  0.3162722642528876  0.5087198231771878  0.7716079994209153  1.0000
  H   H31       1.0  0.4035408919500938  0.008587426763043002  0.2717566497639723  1.0000
  H   H32       1.0  0.6837292146527361  0.49127968766038066  0.2283919279553643  1.0000
  H   H33       1.0  0.7777536975618276  0.0054365585870499  0.7365546582038291  1.0000
  H   H34       1.0  0.5199221502704744  0.49466935022899605  0.7634026836255643  1.0000
  H   H35       1.0  0.22225229261876928  0.9945629502228073  0.2634434978188267  1.0000
  H   H36       1.0  0.4800790295767998  0.5053307729542453  0.23659690943445363  1.0000
  H   H37       1.0  0.6702132189270956  0.956564381228368  0.7773346439116222  1.0000
  H   H38       1.0  0.4045051622277781  0.543562275136658  0.7225628743302224  1.0000
  H   H39       1.0  0.32979503495838  0.0434351293020754  0.2226650082746033  1.0000
  H   H40       1.0  0.5954963145265424  0.4564372349717233  0.2774364178886158  1.0000
  H   H41       1.0  0.4653694253975899  0.8228983157915551  0.7015435081058642  1.0000
  H   H42       1.0  0.9899906195161207  0.6772232771652184  0.7983159380740689  1.0000
  H   H43       1.0  0.5346338500094062  0.17709752170112836  0.29845906032540626  1.0000
  H   H44       1.0  0.010010260197162776  0.32277745799910923  0.2016830030909702  1.0000
  H   H45       1.0  0.4910382579634246  0.9222663204795153  0.6890325036556177  1.0000
  H   H46       1.0  0.1024400615898458  0.5778363779907352  0.8108227647590666  1.0000
  H   H47       1.0  0.5089624622099079  0.0777301301904032  0.31097045734684065  1.0000
  H   H48       1.0  0.8975599858671687  0.4221637441499197  0.1891759214298006  1.0000
  H   H49       1.0  0.4712439491591596  0.8857789889803768  0.7430650872463218  1.0000
  H   H50       1.0  0.10029997490726571  0.6143880250873863  0.7567966946043754  1.0000
  H   H51       1.0  0.5287618230166373  0.11421868758333176  0.25693824611344945  1.0000
  H   H52       1.0  0.8996986443280902  0.38561270945012877  0.24320170313323794  1.0000
  H   H53       1.0  0.02697472837914456  0.6006179475177547  0.6782491000037609  1.0000
  H   H54       1.0  0.30623578074683894  0.8993755705709885  0.821801204326718  1.0000
  H   H55       1.0  0.9730293122140452  0.39938095233012655  0.3217523402736262  1.0000
  H   H56       1.0  0.693763441983471  0.100623941098128  0.17819944993700432  1.0000
  H   H57       1.0  0.1412105581148921  0.6574589336704335  0.6454530176032092  1.0000
  H   H58       1.0  0.4444591240815471  0.8424491517580605  0.8546158420923362  1.0000
  H   H59       1.0  0.8587931791173489  0.3425405770647529  0.3545468180430476  1.0000
  H   H60       1.0  0.555540990445536  0.15754852105106915  0.1453842272265859  1.0000
  H   H61       1.0  0.9606720999387618  0.6531625294992053  0.6306984938672925  1.0000
  H   H62       1.0  0.2448265276075078  0.8468363972931312  0.8693392160444944  1.0000
  H   H63       1.0  0.0393308688803273  0.3468339177870163  0.3693015171967033  1.0000
  H   H64       1.0  0.755176144304535  0.15316066306795048  0.130661095860674  1.0000
  H   H65       1.0  0.25849791446292164  0.7845320018596807  0.7101143899675649  1.0000
  H   H66       1.0  0.7533272591448252  0.7153534531704436  0.7900409622807772  1.0000
  H   H67       1.0  0.7415058206180162  0.2154675081463252  0.289884810521265  1.0000
  H   H68       1.0  0.2466733182831504  0.2846478932457898  0.2099566918318487  1.0000
  H   H69       1.0  0.24737441931538495  0.7586303610275207  0.6575402738899571  1.0000
  H   H70       1.0  0.6635493560781  0.7413106681239441  0.8425688112460605  1.0000
  H   H71       1.0  0.7526321689819042  0.24136792309098345  0.3424585507652296  1.0000
  H   H72       1.0  0.3364503933962197  0.2586900667269775  0.1574298582052691  1.0000
  H   H73       1.0  0.24569108286416955  0.685482224661392  0.7009204498793055  1.0000
  H   H74       1.0  0.6324908479363601  0.8144483264355529  0.7991720160746142  1.0000
  H   H75       1.0  0.7543129491238078  0.3145166722697538  0.299078449768345  1.0000
  H   H76       1.0  0.3675057481876108  0.1855542462839637  0.20082637731538003  1.0000
  H   H77       1.0  0.1514150696149344  0.9999534826008867  0.7761998585012932  1.0000
  H   H78       1.0  0.9278484204929638  0.500376694820872  0.7237750357688029  1.0000
  H   H79       1.0  0.8485844467954564  4.541489959559996e-05  0.22379954218510528  1.0000
  H   H80       1.0  0.07215222615639055  0.4996222029930164  0.276224636631305  1.0000
  H   H81       1.0  0.394992509435184  0.1766955077394456  0.7175340783176409  1.0000
  H   H82       1.0  0.28922448546103396  0.3233783811849804  0.7824466807544964  1.0000
  H   H83       1.0  0.605000120443897  0.8233082963876299  0.2824695004517608  1.0000
  H   H84       1.0  0.7107777618577419  0.67662419310156  0.2175530712040512  1.0000
  H   H85       1.0  0.21003889476966717  0.0410212051871426  0.6377044710172511  1.0000
  H   H86       1.0  0.888892877592717  0.4590679214044683  0.8622701763883853  1.0000
  H   H87       1.0  0.7899632919329421  0.9589838206184708  0.3622958032835442  1.0000
  H   H88       1.0  0.11110776690533446  0.54093097568024  0.1377288608542884  1.0000
  H   H89       1.0  0.44757426049723387  0.601718150879634  0.5142277789508541  1.0000
  H   H90       1.0  0.5636148981190487  0.8982674389417511  0.9856208910432258  1.0000
  H   H91       1.0  0.5524258572568073  0.3982795230232695  0.4857732431042193  1.0000
  H   H92       1.0  0.4363832019018616  0.10173207496610809  0.0143817145578069  1.0000
  H   H93       1.0  0.6475462391760018  0.7916308008572128  0.5445016640701114  1.0000
  H   H94       1.0  0.9836990422797951  0.7082498418503106  0.9555639207912847  1.0000
  H   H95       1.0  0.35244621825532363  0.20836871440035043  0.4555021235921047  1.0000
  H   H96       1.0  0.01630879992022469  0.29175518698069414  0.0444389823929257  1.0000
  H   H97       1.0  0.5167331686669953  0.6214471916784065  0.6446950600481074  1.0000
  H   H98       1.0  0.7834049624880423  0.8783342050184185  0.8552259015155386  1.0000
  H   H99       1.0  0.4832673076858994  0.3785474179951507  0.3553054564022561  1.0000
  H   H100      1.0  0.21659949437335507  0.12167082469532889  0.1447777744211294  1.0000
  H   H101      1.0  0.6197194356034783  0.356833310773652  0.8278667445123986  1.0000
  H   H102      1.0  0.8047908759888784  0.143022044891417  0.6719934488412136  1.0000
  H   H103      1.0  0.3802888864277207  0.6431637507898598  0.1721346083825992  1.0000
  H   H104      1.0  0.1952072132755091  0.8569774653705194  0.3280059809726481  1.0000
  H   H105      1.0  0.7285144549910713  0.34077794591232896  0.87257269870922  1.0000
  H   H106      1.0  0.9421983072413053  0.15919480481589682  0.6273254484572846  1.0000
  H   H107      1.0  0.27149838261770753  0.6592191150818464  0.1274281531470294  1.0000
  H   H108      1.0  0.05780091333770091  0.8408047061240396  0.3726745706490107  1.0000
  H   H109      1.0  0.5611430442274853  0.3000261064770697  0.8750814705496452  1.0000
  H   H110      1.0  0.7365472970119098  0.19986339720591667  0.6247787423843576  1.0000
  H   H111      1.0  0.4388664069670227  0.6999709550352546  0.12491983648034481  1.0000
  H   H112      1.0  0.2634521598579694  0.8001379521782396  0.3752214982230129  1.0000
  H   H113      1.0  0.9962118664658562  0.24215504899704135  0.8276678138260607  1.0000
  H   H114      1.0  0.06605894604380327  0.2578041966783643  0.6723638696826555  1.0000
  H   H115      1.0  0.0037970450768156764  0.7578407849583825  0.17233166707172387  1.0000
  H   H116      1.0  0.9339405097504284  0.7421971523411981  0.32763605334599794  1.0000
  H   H117      1.0  0.8767838935037628  0.3026444952485434  0.7900312069579556  1.0000
  H   H118      1.0  0.9693864344674451  0.19732491385597226  0.7099598338675152  1.0000
  H   H119      1.0  0.12322080151967182  0.6973507269305372  0.2099691092948319  1.0000
  H   H120      1.0  0.030618131794106797  0.8026752088091199  0.29003930401876227  1.0000
  H   H121      1.0  0.9406080182757677  0.19404610763211844  0.7867711726883259  1.0000
  H   H122      1.0  0.9212354540321429  0.3059361690338065  0.7132023229633832  1.0000
  H   H123      1.0  0.05939352339731843  0.8059509524155571  0.21322886750312622  1.0000
  H   H124      1.0  0.07876834596756052  0.6940608909114941  0.2867976254980604  1.0000
  H   H125      1.0  0.7820791390188261  0.0370245892256378  0.8411310298131482  1.0000
  H   H126      1.0  0.6607409612059099  0.4629067079352538  0.658676192250816  1.0000
  H   H127      1.0  0.21792549001018807  0.9629730826495618  0.1588682208883085  1.0000
  H   H128      1.0  0.3392636050556419  0.5370934147298384  0.3413229456354543  1.0000
  H   H129      1.0  0.950780412814744  0.0793477129511757  0.8334968502874247  1.0000
  H   H130      1.0  0.8641043179629692  0.4205044476775085  0.6663405395742715  1.0000
  H   H131      1.0  0.04922082979999947  0.9206499594421728  0.1665028555877726  1.0000
  H   H132      1.0  0.13589632761073733  0.5794944497717863  0.33365881524711943  1.0000
  H   H133      1.0  0.8260518552153896  0.0939342466284927  0.7929762110997558  1.0000
  H   H134      1.0  0.7133591083372366  0.4061154815169559  0.7068732941219266  1.0000
  H   H135      1.0  0.17395420095962785  0.9060628124852528  0.20702301047423788  1.0000
  H   H136      1.0  0.28664486303458125  0.5938858669332633  0.2931261278679784  1.0000
  H   H137      1.0  0.9646949880975695  0.9711152274961847  0.9059330642394627  1.0000
  H   H138      1.0  0.841921331489523  0.5288433627099066  0.5940478597288248  1.0000
  H   H139      1.0  0.0353052913477185  0.0288867316303154  0.0940645731356256  1.0000
  H   H140      1.0  0.15807669070479594  0.47115859688356204  0.4059501869549891  1.0000
  H   H141      1.0  0.03950820688578459  0.9514923454170655  0.9559021200061294  1.0000
  H   H142      1.0  0.9469420928179628  0.5483524067333293  0.5440531344749644  1.0000
  H   H143      1.0  0.9604929686588832  0.04850777630780811  0.0440962027390199  1.0000
  H   H144      1.0  0.053055932603314156  0.45164955395391354  0.45594586494500083  1.0000
  H   H145      1.0  0.16273407014334412  0.9715781268524777  0.9086935407052934  1.0000
  H   H146      1.0  0.04326260099384185  0.5282576247683577  0.5912439607117648  1.0000
  H   H147      1.0  0.8372599058281978  0.028427509104979296  0.0913044972832679  1.0000
  H   H148      1.0  0.9567374453875174  0.4717424970077033  0.40875440789839257  1.0000
  H   H149      1.0  0.8258908499483651  0.21107503797878016  0.9928670931763435  1.0000
  H   H150      1.0  0.028970297851934362  0.2888097839487642  0.5071525853955379  1.0000
  H   H151      1.0  0.1741037187616072  0.7889293714643557  0.007130025551155905  1.0000
  H   H152      1.0  0.9710259981380389  0.7111934007518312  0.4928451560994774  1.0000
  H   H153      1.0  0.6859180588798425  0.22343333008249994  0.9557898869127754  1.0000
  H   H154      1.0  0.864375961811568  0.27657684772773905  0.5442886691001334  1.0000
  H   H155      1.0  0.31407544773689733  0.7765686300802982  0.04420866080978671  1.0000
  H   H156      1.0  0.13561528217594815  0.7234251110790663  0.45570870003757596  1.0000
  H   H157      1.0  0.8814295221527431  0.23142138806423412  0.9373336343365395  1.0000
  H   H158      1.0  0.04966201302901397  0.26843043582642423  0.5626775687039967  1.0000
  H   H159      1.0  0.11855999670607514  0.7685817962143062  0.0626637471910882  1.0000
  H   H160      1.0  0.950330362273114  0.7315715236583811  0.43732038972613924  1.0000
  H   H161      1.0  0.6311268734988218  0.09559966094150239  0.9575960300600315  1.0000
  H   H162      1.0  0.6839789059091074  0.4044762841299985  0.5423938533049366  1.0000
  H   H163      1.0  0.36886948633426914  0.904401073333794  0.0424021418288802  1.0000
  H   H164      1.0  0.3160131789398902  0.595526290617215  0.4576063114386741  1.0000
  H   H165      1.0  0.721267202526299  0.0671288488562425  0.005589828092595898  1.0000
  H   H166      1.0  0.7937490414312405  0.43286119418498703  0.49440765168432677  1.0000
  H   H167      1.0  0.2787291551554885  0.9328718846898739  0.9944077086388887  1.0000
  H   H168      1.0  0.20624024866625482  0.5671401542014748  0.5055917313932383  1.0000
  H   H169      1.0  0.7804231745864314  0.0032117114890866006  0.9612269504335984  1.0000
  H   H170      1.0  0.7447608299017006  0.4967713711504371  0.5387623997903717  1.0000
  H   H171      1.0  0.21957627475389072  0.996789635342921  0.0387710671227453  1.0000
  H   H172      1.0  0.2552340443205309  0.5032324281345736  0.46123695872569215  1.0000
  C   C1        1.0  0.6814642162934986  0.7125309076878209  0.6697633551606472  1.0000
  C   C2        1.0  0.06399796243166375  0.7873737174072346  0.8303127352872438  1.0000
  C   C3        1.0  0.3185356045534959  0.28746737928994287  0.3302379677355987  1.0000
  C   C4        1.0  0.9360026268284896  0.21262763301950832  0.16968841219127026  1.0000
  C   C5        1.0  0.774868193028752  0.7603317859631173  0.6883228377174645  1.0000
  C   C6        1.0  0.22371326732871907  0.7396760412059535  0.8116960919187974  1.0000
  C   C7        1.0  0.2251378663732169  0.2396652742444019  0.3116773365926734  1.0000
  C   C8        1.0  0.7762867855065565  0.2603240827576556  0.18830418216366238  1.0000
  C   C9        1.0  0.6974149996024934  0.8346674941207938  0.7075660110503605  1.0000
  C   C10       1.0  0.23981251553085772  0.6654191985973199  0.7923685665447593  1.0000
  C   C11       1.0  0.3025904649097484  0.16533079187185248  0.2924344473634122  1.0000
  C   C12       1.0  0.7601889601478078  0.3345803111464675  0.20763040809536898  1.0000
  C   C13       1.0  0.7854712649474037  0.8809222129141433  0.7232521305546058  1.0000
  C   C14       1.0  0.3897884032446156  0.6191856150065432  0.7766762831383645  1.0000
  C   C15       1.0  0.21453300118015056  0.11907852173202828  0.2767463554366927  1.0000
  C   C16       1.0  0.6102142005217104  0.38081389432146295  0.2233223280580319  1.0000
  C   C17       1.0  0.9491368420775999  0.8509790116318711  0.7201212763518043  1.0000
  C   C18       1.0  0.5203439257932417  0.6491047627874237  0.7798708808032089  1.0000
  C   C19       1.0  0.050866060747068766  0.1490198853504623  0.2798776691608538  1.0000
  C   C20       1.0  0.4796572508270742  0.35089535930204363  0.2201277595206577  1.0000
  C   C21       1.0  0.02731508868897949  0.7786973446456569  0.698956037662505  1.0000
  C   C22       1.0  0.5051173189779944  0.721340521040986  0.8010699125088862  1.0000
  C   C23       1.0  0.9726886474676065  0.2213021657249428  0.3010434804050348  1.0000
  C   C24       1.0  0.49488243157198025  0.2786602141745291  0.19892907452115344  1.0000
  C   C25       1.0  0.9391404614639074  0.7332421092960358  0.6825589220714292  1.0000
  C   C26       1.0  0.35512252463457356  0.7667710218341384  0.8174754334951331  1.0000
  C   C27       1.0  0.06086333638450009  0.2667549499200845  0.3174403912325801  1.0000
  C   C28       1.0  0.6448775271250398  0.23322910176488415  0.18252452300860258  1.0000
  C   C29       1.0  0.041494632763885854  0.9020499103327493  0.7365084919457061  1.0000
  C   C30       1.0  0.6801457112212717  0.5980770184801611  0.7634924653681523  1.0000
  C   C31       1.0  0.9585085074273109  0.09795082545839047  0.2634909926467515  1.0000
  C   C32       1.0  0.3198571331385409  0.4019243307504324  0.2365076376441948  1.0000
  C   C33       1.0  0.7040698583560496  0.962217730950961  0.742335373077772  1.0000
  C   C34       1.0  0.4088612712685348  0.537899798218433  0.757574403035683  1.0000
  C   C35       1.0  0.2959321548231415  0.037783005620546796  0.2576647925371276  1.0000
  C   C36       1.0  0.5911408025268228  0.4620984868340017  0.2424252402369689  1.0000
  C   C37       1.0  0.5228779456694923  0.8672862734327965  0.7105233612480292  1.0000
  C   C38       1.0  0.10085974160772787  0.6328367086526683  0.7893529776016663  1.0000
  C   C39       1.0  0.47712360353315825  0.1327107891670208  0.2894789019944426  1.0000
  C   C40       1.0  0.8991400089422398  0.3671640265628468  0.21064600942838044  1.0000
  C   C41       1.0  0.020678909862510884  0.6576742983122301  0.658123354155407  1.0000
  C   C42       1.0  0.33679670074430856  0.8423088394531887  0.8419309027499153  1.0000
  C   C43       1.0  0.9793271473881618  0.3423227611661088  0.3418761849973039  1.0000
  C   C44       1.0  0.6632056710337436  0.1576888328889723  0.1580687572602741  1.0000
  C   C45       1.0  0.20323056359990221  0.7507506508356557  0.6917449678423111  1.0000
  C   C46       1.0  0.6458891116242997  0.749206216305566  0.8083531106222708  1.0000
  C   C47       1.0  0.7967757267146921  0.2492482459931153  0.3082538400753307  1.0000
  C   C48       1.0  0.35411259711828774  0.25079513078866006  0.1916451327827815  1.0000
  C   C49       1.0  0.1672622649859008  0.012555316968125396  0.7063447627629245  1.0000
  C   C50       1.0  0.8863341031551925  0.4875686782776896  0.7936316194478507  1.0000
  C   C51       1.0  0.8327411742636459  0.9874448064773345  0.2936550561457878  1.0000
  C   C52       1.0  0.11366624336016432  0.5124308315172855  0.20636740105727816  1.0000
  C   C53       1.0  0.19372913164333028  0.030634006493599493  0.7469601184541474  1.0000
  C   C54       1.0  0.9714982932788558  0.4695942960735663  0.7530146197522711  1.0000
  C   C55       1.0  0.8062737744082965  0.9693648915825078  0.2530397797946691  1.0000
  C   C56       1.0  0.028502055387804152  0.5304052144505959  0.2469850359102921  1.0000
  C   C57       1.0  0.2783705401363079  0.08785883010382631  0.7507245864614873  1.0000
  C   C58       1.0  0.11706638513049948  0.41231640603916725  0.7492644475890557  1.0000
  C   C59       1.0  0.7216241691677255  0.9121406828638141  0.24927720399841746  1.0000
  C   C60       1.0  0.8829356897405063  0.5876818793778611  0.2507355132623061  1.0000
  C   C61       1.0  0.3336136862434387  0.13032534484442237  0.7144085443636925  1.0000
  C   C62       1.0  0.17837870979658985  0.3697648716040263  0.7855789436046265  1.0000
  C   C63       1.0  0.6663826237300084  0.8696778445958697  0.28559332565464507  1.0000
  C   C64       1.0  0.8216233023069536  0.6302358646028948  0.21442090443154876  1.0000
  C   C65       1.0  0.3060484287938579  0.1129409853478549  0.6738877085168298  1.0000
  C   C66       1.0  0.09292868484748608  0.38712089857291676  0.8260997589936068  1.0000
  C   C67       1.0  0.6939552575030846  0.8870609801877405  0.3261155076801288  1.0000
  C   C68       1.0  0.9070691692016762  0.6128767736094004  0.1738997668978968  1.0000
  C   C69       1.0  0.22703054546088458  0.0537753036417215  0.6698184562923402  1.0000
  C   C70       1.0  0.9507286134309677  0.44628881117355945  0.8301628683731082  1.0000
  C   C71       1.0  0.7729646331979441  0.946227885120578  0.3301828244335709  1.0000
  C   C72       1.0  0.049272862247697495  0.553710698570235  0.16983610626702023  1.0000
  C   C73       1.0  0.30888093415872214  0.10207744494659467  0.7946452818335671  1.0000
  C   C74       1.0  0.20567153184794756  0.3980618010034576  0.7053489860176612  1.0000
  C   C75       1.0  0.691121440846281  0.8979202284893404  0.20535533091276648  1.0000
  C   C76       1.0  0.794328815743057  0.6019377091561038  0.29465035206618506  1.0000
  C   C77       1.0  0.4084518011101395  0.5346393242652567  0.5957365798381034  1.0000
  C   C78       1.0  0.5391368618484338  0.9652475122315066  0.9040936857636979  1.0000
  C   C79       1.0  0.5915454612762474  0.4653595747959613  0.4042641828931793  1.0000
  C   C80       1.0  0.46085452165748103  0.03474954973521699  0.0959080375276926  1.0000
  C   C81       1.0  0.4737837479623083  0.6064639209238223  0.5810677064863299  1.0000
  C   C82       1.0  0.6616159417282076  0.8934195372097377  0.9188094609178138  1.0000
  C   C83       1.0  0.5262132196683353  0.3935355919414433  0.4189339922435593  1.0000
  C   C84       1.0  0.3383823945835828  0.10658181514233428  0.0811933661843014  1.0000
  C   C85       1.0  0.4846379278143544  0.633289214898177  0.5378066473471037  1.0000
  C   C86       1.0  0.6558865255670979  0.8666549264326306  0.9620846984569695  1.0000
  C   C87       1.0  0.5153587418336016  0.36671091067735506  0.4621950346452478  1.0000
  C   C88       1.0  0.3441173916424701  0.13334887572421647  0.037917151347493  1.0000
  C   C89       1.0  0.5471557202645482  0.7005218732258455  0.5251533189644277  1.0000
  C   C90       1.0  0.7728113932020335  0.7993821415506872  0.974807994986115  1.0000
  C   C91       1.0  0.4528372649864423  0.2994788655781094  0.4748488014641197  1.0000
  C   C92       1.0  0.22719567628222845  0.2006198223729783  0.025193813300958802  1.0000
  C   C93       1.0  0.5995084004959209  0.7394194713025685  0.5552266590539432  1.0000
  C   C94       1.0  0.894248169414695  0.76045787064848  0.9447880915056714  1.0000
  C   C95       1.0  0.40048488596471543  0.26058065588489393  0.4447764308482931  1.0000
  C   C96       1.0  0.1057599090762054  0.2395489966267448  0.0552150331796142  1.0000
  C   C97       1.0  0.5919362921166212  0.7115528327597288  0.5987420206066716  1.0000
  C   C98       1.0  0.9024863181434738  0.7882669033706333  0.9012639509100282  1.0000
  C   C99       1.0  0.4080675154126467  0.28844422973771344  0.4012601509057845  1.0000
  C   C100      1.0  0.09751528119896588  0.2117393507722554  0.0987388305454147  1.0000
  C   C101      1.0  0.5275126264508927  0.6446093373789381  0.6113578282645094  1.0000
  C   C102      1.0  0.7838587662385236  0.8552094617173153  0.8885729526907725  1.0000
  C   C103      1.0  0.4724874945300995  0.35538833761773947  0.38864414652671536  1.0000
  C   C104      1.0  0.216147413600261  0.1447943417955244  0.11143007569854288  1.0000
  C   C105      1.0  0.5600845092900998  0.7303389590945811  0.4790749000043633  1.0000
  C   C106      1.0  0.7691311171033207  0.7695653042089673  0.020897079140894382  1.0000
  C   C107      1.0  0.4399121592822011  0.2696611661163644  0.5209264644092713  1.0000
  C   C108      1.0  0.23086276209574655  0.23043359646418077  0.97910509150028  1.0000
  C   C109      1.0  0.350906447157648  0.16145691655798086  0.6343239891652387  1.0000
  C   C110      1.0  0.1466981111722063  0.3386712990005306  0.865688379201984  1.0000
  C   C111      1.0  0.6490901012579826  0.8385481120557117  0.3656787375116153  1.0000
  C   C112      1.0  0.8533090103230092  0.6613282104873266  0.13431036611309818  1.0000
  C   C113      1.0  0.9980401892034932  0.0784923360182574  0.9321766782199603  1.0000
  C   C114      1.0  0.008556566803413527  0.42136385199528786  0.5678143600327559  1.0000
  C   C115      1.0  0.0019575328568351095  0.9215102355562905  0.06782071656887471  1.0000
  C   C116      1.0  0.9914406242102914  0.5786374949390874  0.4321837492536106  1.0000
  C   C117      1.0  0.725123403841202  0.16522635373545572  0.8478557279466656  1.0000
  C   C118      1.0  0.7383775026741262  0.33467873639536094  0.6520503307045331  1.0000
  C   C119      1.0  0.27487724173250433  0.8347725437138394  0.15214362687472524  1.0000
  C   C120      1.0  0.26161975756095757  0.6653201619366769  0.3479497968693154  1.0000
  C   C121      1.0  0.6611619112053403  0.3131802724219027  0.8542236381120033  1.0000
  C   C122      1.0  0.8288386312174649  0.18673584392531234  0.6456498663621346  1.0000
  C   C123      1.0  0.33884866700117305  0.6868167883100539  0.1457769878955446  1.0000
  C   C124      1.0  0.1711625486298089  0.8132642792579361  0.3543497266978832  1.0000
  C   C125      1.0  0.9011685711929827  0.24398915214931086  0.8087379628476654  1.0000
  C   C126      1.0  0.9538664696829856  0.2559741310662673  0.6912442671227623  1.0000
  C   C127      1.0  0.09883665487707557  0.756007294669935  0.19126163890759776  1.0000
  C   C128      1.0  0.04613334578575495  0.7440241540885352  0.308755467879898  1.0000
  C   C129      1.0  0.8284290325816385  0.0889248982652191  0.8279538418068881  1.0000
  C   C130      1.0  0.7457303698745577  0.4110078420467218  0.6718942662110834  1.0000
  C   C131      1.0  0.1715741693013797  0.9110733863714342  0.1720454380220318  1.0000
  C   C132      1.0  0.25427200190349464  0.5889898302954392  0.3281053937991061  1.0000
  C   C133      1.0  0.04375327402973972  0.9877369384766442  0.9252860708039847  1.0000
  C   C134      1.0  0.9568750195913294  0.5121439953898201  0.574679828803383  1.0000
  C   C135      1.0  0.9562450482985766  0.012264409135738698  0.07471262777480799  1.0000
  C   C136      1.0  0.04312247155637292  0.487856739563476  0.42531893237795515  1.0000
  C   C137      1.0  0.8096884022090761  0.1998697717266325  0.9600887792026  1.0000
  C   C138      1.0  0.9690325436041645  0.3000273009311912  0.5399487485905823  1.0000
  C   C139      1.0  0.19030397201739657  0.8001321873935793  0.0399088616488115  1.0000
  C   C140      1.0  0.03095953156396553  0.6999752705347007  0.4600485579445746  1.0000
  C   C141      1.0  0.741988113894287  0.06680383731120539  0.97030546218258  1.0000
  C   C142      1.0  0.7788683157645407  0.4331817030415904  0.5296947065802868  1.0000
  C   C143      1.0  0.2580073466124659  0.9331987332719365  0.029691071600119304  1.0000
  C   C144      1.0  0.22112293790383564  0.5668202590465441  0.47030552076586934  1.0000
  N   N1        1.0  0.08260697818436573  0.9575925623865087  0.7016956076117324  1.0000
  N   N2        1.0  0.7420476413726289  0.5425062923107336  0.7982857775901735  1.0000
  N   N3        1.0  0.9173953297505688  0.04240756038095129  0.2983036220045605  1.0000
  N   N4        1.0  0.25795300312542224  0.4574926047739751  0.20171325965250017  1.0000
  N   N5        1.0  0.6452784421672816  0.7501564233734824  0.6278364063193607  1.0000
  N   N6        1.0  0.02358931987952665  0.7496469660232705  0.8722085963498073  1.0000
  N   N7        1.0  0.3547196557023256  0.24984308980518927  0.3721655641242378  1.0000
  N   N8        1.0  0.9764159649355333  0.25035867525578936  0.1277940642481568  1.0000
  N   N9        1.0  0.7597361795589066  0.2373023082249688  0.8365446894809807  1.0000
  N   N10       1.0  0.8337108313504087  0.26260786922178164  0.6633757723428957  1.0000
  N   N11       1.0  0.24026559948070783  0.7626965906315062  0.1634558897902778  1.0000
  N   N12       1.0  0.1662855977040607  0.737390416451177  0.33662441783350516  1.0000
  N   N13       1.0  0.8563882936943796  0.11231178015771799  0.9529944613737058  1.0000
  N   N14       1.0  0.9213606748419066  0.3875914040923262  0.5470304858894863  1.0000
  N   N15       1.0  0.14360776492905816  0.887689565734078  0.047002741041517006  1.0000
  N   N16       1.0  0.07863343096717301  0.6124093317437128  0.4529690480443094  1.0000
  O   O1        1.0  0.22237649687382086  0.07958050132088351  0.8273406785342132  1.0000
  O   O2        1.0  0.1293380496502721  0.4205591336756171  0.6726431545554589  1.0000
  O   O3        1.0  0.7776184454941344  0.9204208489971961  0.17266038069061548  1.0000
  O   O4        1.0  0.8706614710627252  0.5794397652832329  0.327357516445808  1.0000
  O   O5        1.0  0.41747296120271227  0.13530650275225753  0.7988827687119268  1.0000
  O   O6        1.0  0.35171735767550427  0.36481408323586345  0.7011146453197838  1.0000
  O   O7        1.0  0.5825279898832464  0.8646917845389125  0.20111882589802832  1.0000
  O   O8        1.0  0.6482804357574992  0.6351860404655338  0.2988854029139674  1.0000
  O   O9        1.0  0.4037607287330616  0.5103668446975788  0.6354129269371569  1.0000
  O   O10       1.0  0.5500311841730579  0.9896156118115371  0.8644400623493312  1.0000
  O   O11       1.0  0.5962365964207875  0.4896296035737605  0.3645879486093051  1.0000
  O   O12       1.0  0.44996002365813575  0.0103771601918936  0.13556091709872933  1.0000
  O   O13       1.0  0.363020128506939  0.49764151733364037  0.5680764687677496  1.0000
  O   O14       1.0  0.4288580506205619  0.0021271763303687  0.9317337781327028  1.0000
  O   O15       1.0  0.6369711251614373  0.502360444754494  0.4319237585784137  1.0000
  O   O16       1.0  0.5711380869051226  0.9978717242404116  0.0682683007784561  1.0000
  O   O17       1.0  0.5187260243399693  0.6945106213173843  0.4512079418026644  1.0000
  O   O18       1.0  0.664173261985134  0.8055269899029865  0.048731833642818925  1.0000
  O   O19       1.0  0.4812740858845146  0.3054870500333777  0.5487908572013822  1.0000
  O   O20       1.0  0.33582340981411823  0.1944731364017328  0.951270483506967  1.0000
  O   O21       1.0  0.6160611872906473  0.794283187006364  0.4713115774612077  1.0000
  O   O22       1.0  0.8809543423950149  0.7054656888763515  0.02868462721694699  1.0000
  O   O23       1.0  0.3839357781887004  0.20571632512972116  0.5286894861112472  1.0000
  O   O24       1.0  0.1190322817128759  0.2945295326633469  0.9713151525610968  1.0000
  O   O25       1.0  0.3796444855701111  0.22946765430789637  0.6392455154339771  1.0000
  O   O26       1.0  0.2480209388881534  0.2705321155806928  0.8608178204889896  1.0000
  O   O27       1.0  0.6203358895064355  0.7705404370641987  0.3607564534853793  1.0000
  O   O28       1.0  0.7519929500573423  0.7294673910479047  0.1391784265850333  1.0000
  O   O29       1.0  0.09118877153552768  0.12216985185899888  0.9185140885165807  1.0000
  O   O30       1.0  0.13167477252019202  0.3776406189292132  0.5815039343905894  1.0000
  O   O31       1.0  0.9088055002674053  0.8778351706590044  0.08148333105209102  1.0000
  O   O32       1.0  0.868321522394133  0.6223625654067886  0.4184934895257157  1.0000
  O   O33       1.0  0.6075647034740542  0.16159180695117928  0.8748202731538086  1.0000
  O   O34       1.0  0.6440341621624696  0.3383179259318965  0.6251000752222992  1.0000
  O   O35       1.0  0.3924371329547682  0.8384046392924487  0.1251788310390438  1.0000
  O   O36       1.0  0.35595971273398413  0.661680973282884  0.37490082510400674  1.0000
  O   O37       1.0  0.35213559165565295  0.1327426489169525  0.5981099385211408  1.0000
  O   O38       1.0  0.08331335805659987  0.36753436263586536  0.9018880080057272  1.0000
  O   O39       1.0  0.647864407017366  0.8672599287532845  0.4018927633758622  1.0000
  O   O40       1.0  0.9166910346815341  0.6324614707951213  0.09811102119465431  1.0000
