data_image0
_chemical_formula_structural       Ca2H18C12N18O12
_chemical_formula_sum              "Ca2 H18 C12 N18 O12"
_cell_length_a       7.563670487284921
_cell_length_b       9.627184266182423
_cell_length_c       9.627141847212778
_cell_angle_alpha    95.4163836101761
_cell_angle_beta     100.52397140169178
_cell_angle_gamma    100.52425594958648

_space_group_name_H-M_alt    "P 1"
_space_group_IT_number       1

loop_
  _space_group_symop_operation_xyz
  'x, y, z'

loop_
  _atom_site_type_symbol
  _atom_site_label
  _atom_site_symmetry_multiplicity
  _atom_site_fract_x
  _atom_site_fract_y
  _atom_site_fract_z
  _atom_site_occupancy
  Ca  Ca1       1.0  0.01545612576575909  0.9978681917550745  0.0640711238749958  1.0000
  Ca  Ca2       1.0  0.5154565922113292  0.0640721127779713  0.9978695544518957  1.0000
  H   H1        1.0  0.5394230349923106  0.8476324808133668  0.6679064753121936  1.0000
  H   H2        1.0  0.039434740510635814  0.6679084056959821  0.8476270190696981  1.0000
  H   H3        1.0  0.6340886278268272  0.9966731347183141  0.5887009604475821  1.0000
  H   H4        1.0  0.13409270096562406  0.5887086618485142  0.9966710002657992  1.0000
  H   H5        1.0  0.9112306971744245  0.48186588553146953  0.35660485367093037  1.0000
  H   H6        1.0  0.4112386114805417  0.356606286784249  0.4818727095408591  1.0000
  H   H7        1.0  0.24220717334863204  0.8953076394990732  0.29670207904243995  1.0000
  H   H8        1.0  0.7422149878885874  0.2967024886530679  0.8953140687277782  1.0000
  H   H9        1.0  0.061330921026190206  0.9020655063251153  0.3454656145570283  1.0000
  H   H10       1.0  0.561330039903339  0.34545562463838303  0.9020600354800268  1.0000
  H   H11       1.0  0.8210785230845374  0.7437838542722659  0.16184714097521893  1.0000
  H   H12       1.0  0.3210772290502817  0.16184294473276853  0.7437834174977597  1.0000
  H   H13       1.0  0.6896538495343522  0.7604079656245306  0.020461361005658294  1.0000
  H   H14       1.0  0.18965370220857375  0.0204573788737505  0.760411167581893  1.0000
  H   H15       1.0  0.009166450935779794  0.1189749437502314  0.4392860031743809  1.0000
  H   H16       1.0  0.5091561888643454  0.4392833834307979  0.1189726407889324  1.0000
  H   H17       1.0  0.02941839504019579  0.27162713985027404  0.3493611286923723  1.0000
  H   H18       1.0  0.5294136890254891  0.3493601739173045  0.2716244337683804  1.0000
  C   C1        1.0  0.8092592962453437  0.9607329040535362  0.7809598967033511  1.0000
  C   C2        1.0  0.3092551330416313  0.7809673481545402  0.9607345731306722  1.0000
  C   C3        1.0  0.6658520009819924  0.9067479126325891  0.6432113125491413  1.0000
  C   C4        1.0  0.16585662136360205  0.6432133415663158  0.9067462681901121  1.0000
  C   C5        1.0  0.8172090882476438  0.6367875231784623  0.46523301918187343  1.0000
  C   C6        1.0  0.3172149792800454  0.4652350489058962  0.6367890748885614  1.0000
  C   C7        1.0  0.8511944749875012  0.40923348832006207  0.5410448487652816  1.0000
  C   C8        1.0  0.3511969023148325  0.5410435061160754  0.40923325075849704  1.0000
  C   C9        1.0  0.9381403846260811  0.20236068844926078  0.40266877011478647  1.0000
  C   C10       1.0  0.4381352739053169  0.4026657633786712  0.20236025625637669  1.0000
  C   C11       1.0  0.7612239731620818  0.13651749623175397  0.29249619675076133  1.0000
  C   C12       1.0  0.26122709347158235  0.2924976520209626  0.13651423105926602  1.0000
  N   N1        1.0  0.7315101862884319  0.8131506431761437  0.5469291229681446  1.0000
  N   N2        1.0  0.23151568975114858  0.5469289783632975  0.8131517518979763  1.0000
  N   N3        1.0  0.8460004504093278  0.7373327460852863  0.37677498713417634  1.0000
  N   N4        1.0  0.3460068807806279  0.37677821229490865  0.7373389940387369  1.0000
  N   N5        1.0  0.7911313328552294  0.850138310689161  0.4325260447131996  1.0000
  N   N6        1.0  0.2911338987125233  0.43253186971947616  0.8501386117947407  1.0000
  N   N7        1.0  0.7438173577669289  0.6812426999177178  0.5731562531343286  1.0000
  N   N8        1.0  0.2438290498600253  0.5731559649034281  0.6812449662099385  1.0000
  N   N9        1.0  0.8526796685188386  0.5020183436093503  0.4414253475408927  1.0000
  N   N10       1.0  0.35268362008197573  0.44142419136931466  0.5020185917455464  1.0000
  N   N11       1.0  0.805218741889604  0.4288738899247448  0.6678598850489125  1.0000
  N   N12       1.0  0.30521866438702006  0.6678550447789461  0.42887783724350476  1.0000
  N   N13       1.0  0.9026683604898907  0.2817213864349171  0.5260151657874489  1.0000
  N   N14       1.0  0.4026698402377846  0.5260152421078388  0.28172531594792366  1.0000
  N   N15       1.0  0.8310845669174469  0.310521374598963  0.7286116564227854  1.0000
  N   N16       1.0  0.3310758489351783  0.7286069029942013  0.3105201917363587  1.0000
  N   N17       1.0  0.8875605853115404  0.2211919545689511  0.6464237268323388  1.0000
  N   N18       1.0  0.3875528695240503  0.6464190576293801  0.22119284553603086  1.0000
  O   O1        1.0  0.9684776180021613  0.9343073234369398  0.7941710391428813  1.0000
  O   O2        1.0  0.4685004041508094  0.7941748907709681  0.9343058597809133  1.0000
  O   O3        1.0  0.15158956821272793  0.9579903976517271  0.3009353640649621  1.0000
  O   O4        1.0  0.6515944660285272  0.3009330328459399  0.9579922589204131  1.0000
  O   O5        1.0  0.819745497588862  0.7642183145119147  0.06351761702907768  1.0000
  O   O6        1.0  0.3197499805287691  0.06351878148252149  0.7642203006572786  1.0000
  O   O7        1.0  0.6102237744563582  0.16058354314021267  0.31293010787953085  1.0000
  O   O8        1.0  0.11020286320777468  0.3129396914771548  0.16058173818791494  1.0000
  O   O9        1.0  0.7843823261071706  0.0640028243851489  0.18097395696582205  1.0000
  O   O10       1.0  0.28436986406003234  0.1809769228929241  0.06401073792700632  1.0000
  O   O11       1.0  0.7558598923899352  0.028454476747626193  0.8802489987477602  1.0000
  O   O12       1.0  0.25586668348564257  0.8802425158770933  0.028448681264286832  1.0000
