data_image0
_chemical_formula_structural       Li4H16C16I4O20
_chemical_formula_sum              "Li4 H16 C16 I4 O20"
_cell_length_a       6.609840335297095
_cell_length_b       7.498096206549406
_cell_length_c       15.25801665463887
_cell_angle_alpha    100.77421857028708
_cell_angle_beta     89.9997088123897
_cell_angle_gamma    89.99894942415841

_space_group_name_H-M_alt    "P 1"
_space_group_IT_number       1

loop_
  _space_group_symop_operation_xyz
  'x, y, z'

loop_
  _atom_site_type_symbol
  _atom_site_label
  _atom_site_symmetry_multiplicity
  _atom_site_fract_x
  _atom_site_fract_y
  _atom_site_fract_z
  _atom_site_occupancy
  Li  Li1       1.0  0.9640037384076691  0.6813504132788565  0.536937667323919  1.0000
  Li  Li2       1.0  0.4640093728684818  0.8186460214827775  0.9630556279877214  1.0000
  Li  Li3       1.0  0.0359905286738211  0.31864598732644106  0.46305589761063015  1.0000
  Li  Li4       1.0  0.5359924587256728  0.18134755404761194  0.03694356391094542  1.0000
  H   H1        1.0  0.08238516077978632  0.42990845009734346  0.3016444087959799  1.0000
  H   H2        1.0  0.5823807031015206  0.0700925474110221  0.19835623239652736  1.0000
  H   H3        1.0  0.9176015416134861  0.570104228943819  0.69835137770491  1.0000
  H   H4        1.0  0.4175757416706247  0.9298970535092793  0.8016373338460173  1.0000
  H   H5        1.0  0.0944582232631319  0.30814095807518527  0.06681980986809323  1.0000
  H   H6        1.0  0.5944761516549448  0.19187063800048068  0.43318638864073494  1.0000
  H   H7        1.0  0.9055405823483652  0.6918675871620934  0.9331788559972627  1.0000
  H   H8        1.0  0.4055196283377995  0.8081242462699194  0.5668155508617974  1.0000
  H   H9        1.0  0.6832553226967732  0.8285349332272319  0.46500606218080537  1.0000
  H   H10       1.0  0.18326663510226382  0.6714730542020817  0.034994704139855094  1.0000
  H   H11       1.0  0.31675709883844416  0.1714844967335765  0.5349923400244239  1.0000
  H   H12       1.0  0.8167518383100473  0.32852312638519965  0.9650106371312082  1.0000
  H   H13       1.0  0.8025028245355373  0.9807790569462255  0.5283966213373718  1.0000
  H   H14       1.0  0.30253122941711297  0.5192221440533089  0.9716141901906215  1.0000
  H   H15       1.0  0.19749749396950023  0.0192293050788379  0.4716118581936757  1.0000
  H   H16       1.0  0.697511450257622  0.4807793444212719  0.028398215893226105  1.0000
  C   C1        1.0  0.319795411937875  0.6166660754035007  0.4224096579830674  1.0000
  C   C2        1.0  0.8197997079882811  0.883324962196582  0.07759022014469963  1.0000
  C   C3        1.0  0.6802094455174341  0.3833220576933769  0.5775896657182928  1.0000
  C   C4        1.0  0.1802096879987189  0.1166754498797928  0.9224070077962029  1.0000
  C   C5        1.0  0.3731654031962037  0.5358787428953136  0.3265152500541718  1.0000
  C   C6        1.0  0.8731675446569014  0.9641088619073488  0.1734807985714611  1.0000
  C   C7        1.0  0.62683945422431  0.46411210530057195  0.6734843348639646  1.0000
  C   C8        1.0  0.1268176450133112  0.035890143942488385  0.8265189158070714  1.0000
  C   C9        1.0  0.23098615189393706  0.4448968225731845  0.2727395273078273  1.0000
  C   C10       1.0  0.7310017174879917  0.05509919357966449  0.2272652594265808  1.0000
  C   C11       1.0  0.7690111409606217  0.5551008378522508  0.7272594021839685  1.0000
  C   C12       1.0  0.26897742070170955  0.9448915448831701  0.7727402137650831  1.0000
  C   C13       1.0  0.2507168759649403  0.3662941303629593  0.17705012793580727  1.0000
  C   C14       1.0  0.7507318557947898  0.13370436183377882  0.32295219321319735  1.0000
  C   C15       1.0  0.7492698265141159  0.6337116632233731  0.8229502394804417  1.0000
  C   C16       1.0  0.24925182101438284  0.8662919289280849  0.6770472599527724  1.0000
  I   I1        1.0  0.6616027959772737  0.5953919378325452  0.2824651569286446  1.0000
  I   I2        1.0  0.16161403142569236  0.9045879425077816  0.21752840742580307  1.0000
  I   I3        1.0  0.3384020617392309  0.4045758442351329  0.7175315534022675  1.0000
  I   I4        1.0  0.838378722530031  0.09542581313026939  0.7824825572938183  1.0000
  O   O1        1.0  0.4205948846348874  0.7523296832293765  0.4624706891800587  1.0000
  O   O2        1.0  0.9206132745712524  0.747672150189345  0.037527186335253794  1.0000
  O   O3        1.0  0.5794008954280869  0.24765981969665057  0.5375281109102946  1.0000
  O   O4        1.0  0.079405198790532  0.2523282373939892  0.9624713500697059  1.0000
  O   O5        1.0  0.17190770279952972  0.546062095464798  0.45635549922560886  1.0000
  O   O6        1.0  0.6718996370445466  0.9539215118798765  0.0436488675631068  1.0000
  O   O7        1.0  0.8281001802914716  0.4539383044092062  0.5436423829641657  1.0000
  O   O8        1.0  0.3281097590120651  0.0460734699984755  0.9563478379442504  1.0000
  O   O9        1.0  0.07540264625648521  0.35682610341645227  0.13427137364169545  1.0000
  O   O10       1.0  0.5754203692603782  0.14319264396334563  0.3657310042641699  1.0000
  O   O11       1.0  0.9245931335292781  0.6431852180089733  0.8657242822255502  1.0000
  O   O12       1.0  0.4245678463404516  0.856795477041537  0.634268973728169  1.0000
  O   O13       1.0  0.4137835351654431  0.313351827238165  0.14147204057710647  1.0000
  O   O14       1.0  0.9138046934637034  0.1866321285471386  0.35852492619422816  1.0000
  O   O15       1.0  0.5862182965511451  0.6866322942993222  0.8585236200842206  1.0000
  O   O16       1.0  0.0861804960851558  0.8133764167894808  0.6414737397090209  1.0000
  O   O17       1.0  0.8192536116069533  0.8634644888194244  0.48908609728521685  1.0000
  O   O18       1.0  0.3192658391095478  0.6365468832311691  0.010917705696016404  1.0000
  O   O19       1.0  0.18076183568454238  0.13655760736467928  0.5109151831070025  1.0000
  O   O20       1.0  0.6807601987279526  0.3634532233884968  0.9890958783150768  1.0000
