data_image0
_chemical_formula_structural       Ni4H20C28N4O20
_chemical_formula_sum              "Ni4 H20 C28 N4 O20"
_cell_length_a       6.244210633025573
_cell_length_b       7.764634298618433
_cell_length_c       15.134142122014865
_cell_angle_alpha    89.99995962507961
_cell_angle_beta     89.9998641506113
_cell_angle_gamma    107.74994943910201

_space_group_name_H-M_alt    "P 1"
_space_group_IT_number       1

loop_
  _space_group_symop_operation_xyz
  'x, y, z'

loop_
  _atom_site_type_symbol
  _atom_site_label
  _atom_site_symmetry_multiplicity
  _atom_site_fract_x
  _atom_site_fract_y
  _atom_site_fract_z
  _atom_site_occupancy
  Ni  Ni1       1.0  0.259575192929951  0.7225325864834321  0.4176679496907596  1.0000
  Ni  Ni2       1.0  0.24042446792744693  0.27746839342652413  0.9176673081711684  1.0000
  Ni  Ni3       1.0  0.7404225660982673  0.2774665688618968  0.5823325619351323  1.0000
  Ni  Ni4       1.0  0.7595791226015507  0.7225334621233234  0.08233188193610629  1.0000
  H   H1        1.0  0.6678029006004991  0.9048750145727525  0.4700856203059302  1.0000
  H   H2        1.0  0.8321950254112804  0.09512517818625811  0.9700842936088492  1.0000
  H   H3        1.0  0.3321948584254386  0.09512414077156003  0.5299155520775969  1.0000
  H   H4        1.0  0.1678064498422742  0.9048753265438024  0.0299135749844197  1.0000
  H   H5        1.0  0.6983683484736712  0.7597636834406318  0.4038228731986564  1.0000
  H   H6        1.0  0.801630607102595  0.2402340070393336  0.9038215243153475  1.0000
  H   H7        1.0  0.3016288962084701  0.24023411964071792  0.596178299185361  1.0000
  H   H8        1.0  0.19837458436261093  0.7597678470693623  0.0961776657911386  1.0000
  H   H9        1.0  0.3427799323853904  0.6786445224058185  0.2375182936523501  1.0000
  H   H10       1.0  0.15721622687106418  0.32135295736338787  0.7375203609394133  1.0000
  H   H11       1.0  0.6572173123036007  0.3213532806785795  0.7624808964587615  1.0000
  H   H12       1.0  0.842776729343967  0.6786462023033482  0.262481472204108  1.0000
  H   H13       1.0  0.22459943155991616  0.11043158117440303  0.1836574555532096  1.0000
  H   H14       1.0  0.27540350317268286  0.8895660583989766  0.6836572205726199  1.0000
  H   H15       1.0  0.7754010150014919  0.8895662190276996  0.8163417345563316  1.0000
  H   H16       1.0  0.7245979720740292  0.11043444632803563  0.316342630293569  1.0000
  H   H17       1.0  0.22865902039794148  0.3215122904850675  0.4482967964342208  1.0000
  H   H18       1.0  0.27133402532407996  0.6784886010363422  0.9482973020395915  1.0000
  H   H19       1.0  0.7713387386348385  0.6784868648622934  0.5517023936763934  1.0000
  H   H20       1.0  0.728664762394004  0.32151325883592824  0.0517025488276701  1.0000
  C   C1        1.0  0.3063171063903098  0.5388649676684025  0.2588449501530619  1.0000
  C   C2        1.0  0.193677819086993  0.4611338002480921  0.7588469314800363  1.0000
  C   C3        1.0  0.6936806526424633  0.4611341876789511  0.7411542399575453  1.0000
  C   C4        1.0  0.8063167380665277  0.5388653579785158  0.241154240905054  1.0000
  C   C5        1.0  0.2809052693362588  0.39963832601352334  0.1976634556537746  1.0000
  C   C6        1.0  0.21908584783312077  0.6003579283299915  0.6976640405363668  1.0000
  C   C7        1.0  0.7190882591342385  0.6003581276891908  0.8023363952170328  1.0000
  C   C8        1.0  0.7809087093249616  0.3996412298986414  0.302335810333453  1.0000
  C   C9        1.0  0.2438645745690806  0.2236116310406971  0.22894575427988428  1.0000
  C   C10       1.0  0.25613587441894475  0.7763885767271007  0.728945578848439  1.0000
  C   C11       1.0  0.7561363863315618  0.7763875214223364  0.7710547573444373  1.0000
  C   C12       1.0  0.7438656008254867  0.22361192799889554  0.2710549327753853  1.0000
  C   C13       1.0  0.23539047366274699  0.19448681215086344  0.3203040969522775  1.0000
  C   C14       1.0  0.2646109457494887  0.805513113346372  0.8203032419927112  1.0000
  C   C15       1.0  0.7646110015816843  0.805513692575133  0.6796964146715468  1.0000
  C   C16       1.0  0.7353942457157171  0.19448874076232414  0.17969594811377473  1.0000
  C   C17       1.0  0.2487953062436929  0.33944630001413867  0.3770902364980131  1.0000
  C   C18       1.0  0.2512030337226463  0.6605548060687882  0.877090768279082  1.0000
  C   C19       1.0  0.7512029671306024  0.6605542075951689  0.6229096143697461  1.0000
  C   C20       1.0  0.7487989558655811  0.33944705092017113  0.1229097433442519  1.0000
  C   C21       1.0  0.2968109782913898  0.44476056460106866  0.1007177398796841  1.0000
  C   C22       1.0  0.20318343757755744  0.5552386908329084  0.6007183565616074  1.0000
  C   C23       1.0  0.7031867807368285  0.5552385907442527  0.8992827717462006  1.0000
  C   C24       1.0  0.796811119578244  0.44476046739471553  0.3992821550658476  1.0000
  C   C25       1.0  0.2243240402792352  0.013638608565528903  0.356667609952126  1.0000
  C   C26       1.0  0.2756797577969436  0.9863639082392199  0.8566653576477776  1.0000
  C   C27       1.0  0.7756784636482192  0.9863646006843682  0.6433342231859882  1.0000
  C   C28       1.0  0.7243312651690414  0.013640646073994801  0.1433325109400911  1.0000
  N   N1        1.0  0.2827843081873311  0.5085781910663558  0.3466537103825047  1.0000
  N   N2        1.0  0.21721052561944992  0.49142165919493414  0.8466549970060626  1.0000
  N   N3        1.0  0.7172123642530365  0.4914223179851192  0.6533454797283937  1.0000
  N   N4        1.0  0.7827866611601448  0.5085802021174715  0.1533455146196161  1.0000
  O   O1        1.0  0.38762646188898486  0.6096004939334847  0.0775349840380244  1.0000
  O   O2        1.0  0.11237348903370045  0.3903961224722535  0.577535748950403  1.0000
  O   O3        1.0  0.6123739846678616  0.3903973062665855  0.9224655275867946  1.0000
  O   O4        1.0  0.8876242699967987  0.609603032874091  0.4224641019178463  1.0000
  O   O5        1.0  0.21401423864467253  0.3135409476400994  0.0486613350407268  1.0000
  O   O6        1.0  0.28598002214862817  0.6864571155485921  0.5486624841869769  1.0000
  O   O7        1.0  0.7859824337956878  0.6864595614113682  0.9513378550701788  1.0000
  O   O8        1.0  0.7140167081965669  0.3135393352728428  0.4513367059246249  1.0000
  O   O9        1.0  0.22124561988859878  0.987199484175385  0.4404012874544279  1.0000
  O   O10       1.0  0.278754398419366  0.0128027781174396  0.9404000427125538  1.0000
  O   O11       1.0  0.7787536821687195  0.012803727957816601  0.5595998849276144  1.0000
  O   O12       1.0  0.7212433027131409  0.9872004354619864  0.05959782588208639  1.0000
  O   O13       1.0  0.22681779761928317  0.8865951529966626  0.3041847942325688  1.0000
  O   O14       1.0  0.2731938530082161  0.11340616566916852  0.8041821972816691  1.0000
  O   O15       1.0  0.7731884804246576  0.11340534740183021  0.6958183604194587  1.0000
  O   O16       1.0  0.726829977449725  0.8865983771158884  0.1958150105422902  1.0000
  O   O17       1.0  0.6105441479101044  0.8446288869869675  0.4124438058887351  1.0000
  O   O18       1.0  0.8894563491024741  0.15536877555065595  0.9124430621852184  1.0000
  O   O19       1.0  0.3894552120543295  0.15537026691721678  0.5875567057363753  1.0000
  O   O20       1.0  0.11054672708728931  0.8446317277382536  0.0875548064072689  1.0000
