data_image0
_chemical_formula_structural       Zn6H33C62Cl3O26
_chemical_formula_sum              "Zn6 H33 C62 Cl3 O26"
_cell_length_a       18.406171882863074
_cell_length_b       18.792207056468992
_cell_length_c       18.659549827960742
_cell_angle_alpha    109.47255803510502
_cell_angle_beta     108.79755377378673
_cell_angle_gamma    108.74010976366826

_space_group_name_H-M_alt    "P 1"
_space_group_IT_number       1

loop_
  _space_group_symop_operation_xyz
  'x, y, z'

loop_
  _atom_site_type_symbol
  _atom_site_label
  _atom_site_symmetry_multiplicity
  _atom_site_fract_x
  _atom_site_fract_y
  _atom_site_fract_z
  _atom_site_occupancy
  Zn  Zn1       1.0  0.05767625349062664  0.05122761801631271  0.4949439704902758  1.0000
  Zn  Zn2       1.0  0.9278877023907414  0.9330380871595879  0.49535425686029555  1.0000
  Zn  Zn3       1.0  0.5112114049911654  0.9407170168165067  0.942342555984176  1.0000
  Zn  Zn4       1.0  0.4939656064481425  0.05745658062932794  0.058794898114506104  1.0000
  Zn  Zn5       1.0  0.9315137106288776  0.4935623055416941  0.9352700281508889  1.0000
  Zn  Zn6       1.0  0.061219989005330405  0.5030115013548482  0.06528283229260978  1.0000
  H   H1        1.0  0.89921122735187  0.015564812544354836  0.24192123709946153  1.0000
  H   H2        1.0  0.15831984992765066  0.42856072894007013  0.8281533769445559  1.0000
  H   H3        1.0  0.081564175864024  0.2982794618269935  0.6358905539575304  1.0000
  H   H4        1.0  0.16606420818244083  0.3078567145570903  0.7254224545132929  1.0000
  H   H5        1.0  0.24983224639262877  0.9898915791689263  0.8549351193927778  1.0000
  H   H6        1.0  0.44509220181120684  0.011420183407274617  0.6937211996517264  1.0000
  H   H7        1.0  0.37642907749332033  0.8975584585103749  0.6377355745942169  1.0000
  H   H8        1.0  0.33415123535676367  0.023658281413773324  0.5835954196087698  1.0000
  H   H9        1.0  0.2660959986863459  0.909695114894916  0.528872390849699  1.0000
  H   H10       1.0  0.8064908245196419  0.6954034364448559  0.22477385488094365  1.0000
  H   H11       1.0  0.8069558492143899  0.597308062274955  0.09748181991684386  1.0000
  H   H12       1.0  0.1573473156056765  0.7648996477101379  0.2676036166739736  1.0000
  H   H13       1.0  0.13829791429670732  0.8215131183064058  0.20949045563354227  1.0000
  H   H14       1.0  0.15607753618664333  0.8718234031896586  0.39164651727116967  1.0000
  H   H15       1.0  0.13417613983735785  0.9263296696271509  0.33224581242782136  1.0000
  H   H16       1.0  0.37810933326726825  0.88851931913711  0.1628245532650112  1.0000
  H   H17       1.0  0.27555860216433814  0.7643063712482601  0.16140399238121014  1.0000
  H   H18       1.0  0.1351483700738785  0.577106800591281  0.8180900291501062  1.0000
  H   H19       1.0  0.07139598627784248  0.6313160532700692  0.8200814221965019  1.0000
  H   H20       1.0  0.24860651076207332  0.6977473862344753  0.820712533214284  1.0000
  H   H21       1.0  0.6746132863628559  0.06471379743250344  0.46440439160578256  1.0000
  H   H22       1.0  0.18347824002687232  0.7505933131075366  0.8194769770820615  1.0000
  H   H23       1.0  0.6454302821901904  0.2937508862340721  0.04134788457944436  1.0000
  H   H24       1.0  0.7653094165898294  0.396352225885785  0.03595263209508901  1.0000
  H   H25       1.0  0.9160130173955635  0.19577406888159748  0.022437450793688613  1.0000
  H   H26       1.0  0.967249778089915  0.25928380576252863  0.13803162944972064  1.0000
  H   H27       1.0  0.8418727701610181  0.15262498912163383  0.1369844669211631  1.0000
  H   H28       1.0  0.5421628182147984  0.9493922385116847  0.18713705916583487  1.0000
  H   H29       1.0  0.7706603354361832  0.9810451557285661  0.1091687164636  1.0000
  H   H30       1.0  0.882746472054322  0.07941269552711834  0.7033242700623107  1.0000
  H   H31       1.0  0.07377289955246633  0.41886055118085613  0.7382217154537332  1.0000
  H   H32       1.0  0.07621760353384131  0.9745218316026936  0.6894865520846453  1.0000
  H   H33       1.0  0.5253566365703082  0.9898287747047976  0.37790603591190586  1.0000
  C   C1        1.0  0.9825346749808266  0.08971105566092068  0.6213151278213687  1.0000
  C   C2        1.0  0.7609797520841894  0.030005551928702842  0.3260252658608281  1.0000
  C   C3        1.0  0.8380270614348576  0.0329422549929249  0.32150768304237703  1.0000
  C   C4        1.0  0.8404659340392229  0.014428234516856361  0.24424163384771458  1.0000
  C   C5        1.0  0.7671174108544249  0.9914873761605419  0.16876965079325146  1.0000
  C   C6        1.0  0.6899334736389521  0.9824622199616472  0.169636982121098  1.0000
  C   C7        1.0  0.034120091445657856  0.2466283819215817  0.7122213103564761  1.0000
  C   C8        1.0  0.9821314647951598  0.16084476665422903  0.686751773366531  1.0000
  C   C9        1.0  0.92525990976943  0.14541157816946526  0.7219194992155309  1.0000
  C   C10       1.0  0.9218441152302291  0.21311187553521194  0.7791875454706769  1.0000
  C   C11       1.0  0.9738947997383249  0.2998768700009649  0.804280562467099  1.0000
  C   C12       1.0  0.9081907990151875  0.033939997787697886  0.39119182584901313  1.0000
  C   C13       1.0  0.02953262556519593  0.31352217641830293  0.768918182906795  1.0000
  C   C14       1.0  0.09773171090427722  0.38279993852842154  0.7662941378821344  1.0000
  C   C15       1.0  0.1026082259937837  0.3067764111156777  0.7017061571587107  1.0000
  C   C16       1.0  0.26696755410518597  0.9778832310639062  0.6517689706025322  1.0000
  C   C17       1.0  0.19661206840266499  0.9859419275539453  0.6590895073526966  1.0000
  C   C18       1.0  0.18953714150449502  0.9848662777643113  0.73274857869108  1.0000
  C   C19       1.0  0.2552099472298863  0.9849315639644658  0.7972090642999349  1.0000
  C   C20       1.0  0.3253077735619598  0.9767628418720591  0.787975614428035  1.0000
  C   C21       1.0  0.3278273344332376  0.9702998653515778  0.7121608215775482  1.0000
  C   C22       1.0  0.37736194410593527  0.959944680380296  0.6616721259069892  1.0000
  C   C23       1.0  0.9488847805174815  0.8501242074401316  0.3664970092475244  1.0000
  C   C24       1.0  0.307872215470937  0.9679850544034992  0.5927806444942691  1.0000
  C   C25       1.0  0.02016271924829743  0.8015850916214263  0.28283095430165156  1.0000
  C   C26       1.0  0.9442405471376318  0.7859127108281427  0.29027614545060487  1.0000
  C   C27       1.0  0.8674683728771129  0.7100899241053397  0.2218906009219878  1.0000
  C   C28       1.0  0.8678547247811039  0.6544632738359439  0.15015023802321537  1.0000
  C   C29       1.0  0.9459302813313072  0.6692827849917792  0.14556044299858686  1.0000
  C   C30       1.0  0.021462167163875244  0.7438183458433727  0.21408477973768214  1.0000
  C   C31       1.0  0.11915354468963102  0.796471653985904  0.24970401196276268  1.0000
  C   C32       1.0  0.11745220878897558  0.8627177106023041  0.32739904747593573  1.0000
  C   C33       1.0  0.384784292318642  0.9020700031325646  0.021924802923614043  1.0000
  C   C34       1.0  0.131482205229311  0.9949824475806537  0.5967753731068939  1.0000
  C   C35       1.0  0.6185180966686801  0.9726674506616958  0.09411347284476779  1.0000
  C   C36       1.0  0.6256584899463178  0.14303492652837957  0.04034957987415314  1.0000
  C   C37       1.0  0.39309659291482313  0.9779452472039978  0.8590716988518994  1.0000
  C   C38       1.0  0.9135100454720514  0.3957056828217063  0.044319193183611105  1.0000
  C   C39       1.0  0.9738525779190682  0.37340883225790145  0.8685328394110886  1.0000
  C   C40       1.0  0.13173727174017807  0.6169271179116577  0.020327036544280537  1.0000
  C   C41       1.0  0.9529435463776892  0.6070084143172066  0.07752244350614738  1.0000
  C   C42       1.0  0.25162790998994206  0.7580575549257843  0.9464545974111617  1.0000
  C   C43       1.0  0.3199832217097907  0.8312948820723349  0.023211856195395356  1.0000
  C   C44       1.0  0.3257191187094293  0.8326157566089947  0.10094482993152809  1.0000
  C   C45       1.0  0.7552547803678067  0.059429193558450784  0.4040891719385868  1.0000
  C   C46       1.0  0.2673466356579297  0.7626211507059892  0.10022641693707611  1.0000
  C   C47       1.0  0.19669212887918527  0.6899344398096617  0.02209599191743189  1.0000
  C   C48       1.0  0.1900356331934605  0.6908515084953637  0.9458891511943579  1.0000
  C   C49       1.0  0.138043197953401  0.6399101423480005  0.8476878215889843  1.0000
  C   C50       1.0  0.20868867454310455  0.7156296631813107  0.8483365558776654  1.0000
  C   C51       1.0  0.7796830196452262  0.2064240394242844  0.06213751179440412  1.0000
  C   C52       1.0  0.7039890056785296  0.21267468400454706  0.052661190077131374  1.0000
  C   C53       1.0  0.7026710591873807  0.28535772653623337  0.04753960839457961  1.0000
  C   C54       1.0  0.7708355937358107  0.34392876504339404  0.04582802377644415  1.0000
  C   C55       1.0  0.8468937744245508  0.3368106900778046  0.05514716129782469  1.0000
  C   C56       1.0  0.676035413186625  0.0411378435696294  0.4031902985582364  1.0000
  C   C57       1.0  0.8503319045104903  0.26806470704344315  0.06621317360156802  1.0000
  C   C58       1.0  0.9050198182809693  0.2231128974049881  0.077352128749304  1.0000
  C   C59       1.0  0.8267122549910297  0.15511321012631638  0.07621104124778806  1.0000
  C   C60       1.0  0.5982342395537544  0.995690036759946  0.32328160086711244  1.0000
  C   C61       1.0  0.6019969145419709  0.9774843682897086  0.24697747234945663  1.0000
  C   C62       1.0  0.6829205211700894  0.9963928244947126  0.2471868164627581  1.0000
  Cl  Cl1       1.0  0.8483347823433646  0.12828877883388407  0.503851884898623  1.0000
  Cl  Cl2       1.0  0.7791054752492246  0.04686127310558438  0.9922102465860195  1.0000
  Cl  Cl3       1.0  0.8510291173404525  0.1896584684360009  0.8210118844782032  1.0000
  O   O1        1.0  0.03778218257716053  0.1116577675591728  0.5952699523895362  1.0000
  O   O2        1.0  0.4100175812252687  0.9802189052941657  0.07627275499475418  1.0000
  O   O3        1.0  0.5973410297369526  0.921172016158522  0.016136803203451486  1.0000
  O   O4        1.0  0.5849987117886998  0.02096570042726856  0.11286508308189276  1.0000
  O   O5        1.0  0.6030292272465873  0.06725985318861669  0.9866744560206799  1.0000
  O   O6        1.0  0.5864891846823923  0.16401733094518525  0.0833171070315187  1.0000
  O   O7        1.0  0.43023767450533507  0.932674063053831  0.838432381076629  1.0000
  O   O8        1.0  0.40962074414095906  0.024095818756365107  0.9357980222227698  1.0000
  O   O9        1.0  0.8845909663973046  0.4143003712087678  0.9855730141312053  1.0000
  O   O10       1.0  0.9952458045596089  0.4234942784861957  0.09401353687635342  1.0000
  O   O11       1.0  0.9188037099867827  0.39789524039886004  0.8392501425754801  1.0000
  O   O12       1.0  0.9264417514230844  0.011589378621145818  0.5937600104637681  1.0000
  O   O13       1.0  0.03058405426909875  0.40681091429504335  0.9467912518342133  1.0000
  O   O14       1.0  0.05298463166656829  0.5797726335602819  0.9605466543255119  1.0000
  O   O15       1.0  0.15933753485717259  0.5957199888123768  0.07873635379800697  1.0000
  O   O16       1.0  0.8983872244120618  0.5734238181004869  0.9967433725958869  1.0000
  O   O17       1.0  0.015510173665909153  0.5915635029665225  0.10572383209738229  1.0000
  O   O18       1.0  0.9892166857041786  0.07965161656890984  0.41458446077319167  1.0000
  O   O19       1.0  0.8806723893388124  0.9821388585043351  0.41766460707368946  1.0000
  O   O20       1.0  0.008485155750520288  0.9268465946118595  0.3995557328103061  1.0000
  O   O21       1.0  0.8963390460350027  0.8272142314232838  0.39624199832220336  1.0000
  O   O22       1.0  0.15702185844457262  0.041693191969493205  0.5638452258481054  1.0000
  O   O23       1.0  0.05212907698944499  0.9569759653836415  0.5816771174347937  1.0000
  O   O24       1.0  0.4104920250929355  0.8799719761080097  0.9666729230672858  1.0000
  O   O25       1.0  0.12114288571976323  0.9865722409719666  0.7450327228103149  1.0000
  O   O26       1.0  0.517920693211451  0.9728487855735607  0.31963131740548784  1.0000
