data_image0
_chemical_formula_structural       Al2H12C26O10F4
_chemical_formula_sum              "Al2 H12 C26 O10 F4"
_cell_length_a       6.705196130622927
_cell_length_b       11.204937383498057
_cell_length_c       17.808735364900745
_cell_angle_alpha    83.52820256352624
_cell_angle_beta     78.88673167628791
_cell_angle_gamma    72.84458116027152

_space_group_name_H-M_alt    "P 1"
_space_group_IT_number       1

loop_
  _space_group_symop_operation_xyz
  'x, y, z'

loop_
  _atom_site_type_symbol
  _atom_site_label
  _atom_site_symmetry_multiplicity
  _atom_site_fract_x
  _atom_site_fract_y
  _atom_site_fract_z
  _atom_site_occupancy
  Al  Al1       1.0  0.5004135603730689  0.5009132809419156  0.5042233578666779  1.0000
  Al  Al2       1.0  0.0010572163981309012  0.4991521935839599  0.5043669288368589  1.0000
  H   H1        1.0  0.2859403496095468  0.36740447870537446  0.5685621890407901  1.0000
  H   H2        1.0  0.7099203110356245  0.6414593726052332  0.45030105895698086  1.0000
  H   H3        1.0  0.6818597268330325  0.5076430949335488  0.27222710700388564  1.0000
  H   H4        1.0  0.7527066506673779  0.5121777894657243  0.1289239674980465  1.0000
  H   H5        1.0  0.07809744261571445  0.4434984607917584  0.27431991971636177  1.0000
  H   H6        1.0  0.9354256044797041  0.53617325156425  0.7351721769474009  1.0000
  H   H7        1.0  0.30942254640259403  0.5065843703294772  0.7359310482408501  1.0000
  H   H8        1.0  0.2400057533500971  0.49816351426517247  0.8792515411614868  1.0000
  H   H9        1.0  0.42385987455475777  0.1284001705022959  0.467031354763172  1.0000
  H   H10       1.0  0.3329955638132631  0.1331655515576529  0.37864217083384216  1.0000
  H   H11       1.0  0.4582658296878892  0.8983602948421565  0.3794351211186607  1.0000
  H   H12       1.0  0.5474347779437568  0.8928196302914202  0.4685575361213451  1.0000
  C   C1        1.0  0.857065970883447  0.2745532531147106  0.5090464641315859  1.0000
  C   C2        1.0  0.6733345276450752  0.5152685935917275  0.642070726301007  1.0000
  C   C3        1.0  0.13897659180251776  0.7254755581554947  0.5056488904379177  1.0000
  C   C4        1.0  0.328401640941081  0.4830300067044959  0.366828600638179  1.0000
  C   C5        1.0  0.37643125220913737  0.47628012161726474  0.28182930486336477  1.0000
  C   C6        1.0  0.567226049601132  0.49398761196477636  0.24063131110607108  1.0000
  C   C7        1.0  0.6060977550823455  0.49692349279703757  0.16114559069755782  1.0000
  C   C8        1.0  0.45561556302309486  0.4812411990830228  0.12015569619676106  1.0000
  C   C9        1.0  0.269083201682598  0.45936589971479685  0.16362533719640734  1.0000
  C   C10       1.0  0.22629534152317643  0.45764926701179576  0.24274461428650795  1.0000
  C   C11       1.0  0.48768356751791253  0.49017522316947987  0.03938316388622808  1.0000
  C   C12       1.0  0.5156989345482615  0.5018853902896154  0.9695098599363017  1.0000
  C   C13       1.0  0.5478429446543844  0.5121950169974667  0.8887345269173178  1.0000
  C   C14       1.0  0.7406281936328231  0.5253927268197246  0.8457283172159291  1.0000
  C   C15       1.0  0.7828339001782967  0.5288977976289999  0.7666157753872367  1.0000
  C   C16       1.0  0.6259446154005418  0.5207618640176365  0.7271094644774221  1.0000
  C   C17       1.0  0.42928242475068873  0.5118705353654035  0.7678905431270662  1.0000
  C   C18       1.0  0.3909322468068198  0.5070958093674918  0.8473897875310566  1.0000
  C   C19       1.0  0.927211160740356  0.13548083236942426  0.5120139034650464  1.0000
  C   C20       1.0  0.06780291518715129  0.863663636760876  0.5110941759841763  1.0000
  C   C21       1.0  0.13138194669660663  0.0693770314214674  0.4797335035043061  1.0000
  C   C22       1.0  0.8628493796326497  0.9292440007862336  0.5455669526005876  1.0000
  C   C23       1.0  0.19910154216906056  0.9392993840154134  0.4797062563854268  1.0000
  C   C24       1.0  0.7956384246079653  0.060049844411025795  0.5462123196224481  1.0000
  C   C25       1.0  0.3402661760941755  0.085019304776182  0.4357380653773432  1.0000
  C   C26       1.0  0.4181393021973108  0.937083158322224  0.43620183978412536  1.0000
  O   O1        1.0  0.663258957558334  0.3285509999486678  0.5061709664482662  1.0000
  O   O2        1.0  0.8610308492650064  0.5130671461122986  0.6094310945555959  1.0000
  O   O3        1.0  0.0002258537375042754  0.6713066609794325  0.5009442626661026  1.0000
  O   O4        1.0  0.47636095915900273  0.4917106648459963  0.39951650659169485  1.0000
  O   O5        1.0  0.33624214940460473  0.673765420315668  0.5034861793171925  1.0000
  O   O6        1.0  0.14176157889892255  0.48307715027222997  0.3995715161853325  1.0000
  O   O7        1.0  0.000978179639751898  0.32766233130158184  0.5084603815456743  1.0000
  O   O8        1.0  0.5238532387757858  0.5093032982807557  0.6092344434756425  1.0000
  O   O9        1.0  0.258901945596243  0.44747486527704433  0.5396302206310608  1.0000
  O   O10       1.0  0.7424329635761424  0.5543697182393785  0.4690016038170626  1.0000
  F   F1        1.0  0.12387263577905842  0.44102463486260746  0.12546294796407403  1.0000
  F   F2        1.0  0.8922382570994928  0.532937808721698  0.8846173158487144  1.0000
  F   F3        1.0  0.7221036037808872  0.8673923086095883  0.5816561836617139  1.0000
  F   F4        1.0  0.5970000503726071  0.11180677927823983  0.5835194248066173  1.0000
