data_image0
_chemical_formula_structural       Zn4H24C32N16O12
_chemical_formula_sum              "Zn4 H24 C32 N16 O12"
_cell_length_a       7.155229673496769
_cell_length_b       10.252385105363429
_cell_length_c       14.550460143106584
_cell_angle_alpha    71.74270876712207
_cell_angle_beta     75.7586602206087
_cell_angle_gamma    69.59396094318649

_space_group_name_H-M_alt    "P 1"
_space_group_IT_number       1

loop_
  _space_group_symop_operation_xyz
  'x, y, z'

loop_
  _atom_site_type_symbol
  _atom_site_label
  _atom_site_symmetry_multiplicity
  _atom_site_fract_x
  _atom_site_fract_y
  _atom_site_fract_z
  _atom_site_occupancy
  Zn  Zn1       1.0  0.3189109537255488  0.24993721490103843  0.750053076821267  1.0000
  Zn  Zn2       1.0  0.6810890335621524  0.750063717675374  0.2499478950184582  1.0000
  Zn  Zn3       1.0  0.9999990856483192  0.49999936753309276  0.5000003041669316  1.0000
  Zn  Zn4       1.0  2.5335419096e-06  5.081418000000002e-09  3.4707539240000005e-07  1.0000
  H   H1        1.0  0.26470833210420613  0.5619535881427211  0.695663512333496  1.0000
  H   H2        1.0  0.5222853721029568  0.9376468548142041  0.8039792167158379  1.0000
  H   H3        1.0  0.7352881575186248  0.438051608515984  0.30433412251097275  1.0000
  H   H4        1.0  0.4777153601454246  0.062357274562785406  0.19601912851472753  1.0000
  H   H5        1.0  0.14711204225653757  0.6808992880936486  0.8336813085691404  1.0000
  H   H6        1.0  0.6623710479675325  0.8189611395842462  0.6658492088856108  1.0000
  H   H7        1.0  0.8528835685802606  0.3191016250162875  0.16631828335641072  1.0000
  H   H8        1.0  0.3376282235174345  0.1810451277560645  0.33414789749787127  1.0000
  H   H9        1.0  0.3965436316373498  0.6810451537006942  0.9260759840829563  1.0000
  H   H10       1.0  0.004677108139062912  0.8187539629201339  0.5738541327230067  1.0000
  H   H11       1.0  0.6034572209452663  0.3189525211718305  0.07392315271025043  1.0000
  H   H12       1.0  0.9953248365525055  0.18124696289334  0.42614632689103615  1.0000
  H   H13       1.0  0.7609089308958303  0.5627986579923102  0.8805181599059464  1.0000
  H   H14       1.0  0.20482158367654776  0.9369450174429657  0.6198704239859297  1.0000
  H   H15       1.0  0.2390886975119528  0.437199021102451  0.11948131557524987  1.0000
  H   H16       1.0  0.795182706403807  0.0630516205995093  0.3801316540212126  1.0000
  H   H17       1.0  0.814029986080875  0.7793270887035534  0.4320801324923025  1.0000
  H   H18       1.0  0.025214106985977442  0.720488713210095  0.06770011069720987  1.0000
  H   H19       1.0  0.18597171029045959  0.220672771509733  0.5679212026581268  1.0000
  H   H20       1.0  0.9747846135307653  0.27951221682561583  0.9323006876048083  1.0000
  H   H21       1.0  0.6475683211804297  0.7162681160790925  0.49673503446913964  1.0000
  H   H22       1.0  0.8603450406972545  0.7837827015805275  0.00311464401829657  1.0000
  H   H23       1.0  0.35243128396169265  0.2837306641489405  0.5032661433788944  1.0000
  H   H24       1.0  0.13965690399431432  0.21621822423294657  0.9968858155957461  1.0000
  C   C1        1.0  0.6248118458914365  0.4129048037480842  0.6360472823106703  1.0000
  C   C2        1.0  0.6736027504621519  0.08670520163443737  0.8640085153792042  1.0000
  C   C3        1.0  0.3751851462111944  0.5870960907545495  0.3639509380881307  1.0000
  C   C4        1.0  0.3263996365421066  0.9132946492751939  0.13599213400784294  1.0000
  C   C5        1.0  0.5787181901128018  0.4932492331974104  0.7107807945289791  1.0000
  C   C6        1.0  0.7826185162023903  0.0063473664332463  0.7892758434721259  1.0000
  C   C7        1.0  0.4212776690442226  0.5067527455127133  0.2892179218601926  1.0000
  C   C8        1.0  0.21738387080186788  0.9936524844763852  0.21072480591492138  1.0000
  C   C9        1.0  0.3725118048706543  0.5605386242905155  0.7376698600481008  1.0000
  C   C10       1.0  0.6708230136163209  0.9391207592034475  0.7621259660695684  1.0000
  C   C11       1.0  0.6274867023231608  0.4394633383530149  0.2623276583520067  1.0000
  C   C12       1.0  0.3291772219915999  0.060881238973159696  0.23787413023377008  1.0000
  C   C13       1.0  0.3069450427288487  0.6278696995362691  0.8143428952382478  1.0000
  C   C14       1.0  0.7496732263284398  0.8718899448871231  0.6854097262885259  1.0000
  C   C15       1.0  0.6930536584574299  0.37213012260323103  0.18565568847125752  1.0000
  C   C16       1.0  0.2503271237743689  0.12811203214147326  0.3145888249503627  1.0000
  C   C17       1.0  0.446234947043152  0.6274770533237514  0.866730378073477  1.0000
  C   C18       1.0  0.9411397030780364  0.8722315857091233  0.6332571950576166  1.0000
  C   C19       1.0  0.5537635058229  0.3725217032155613  0.13326908117240777  1.0000
  C   C20       1.0  0.05886224161353235  0.1277693401043507  0.36674326455642603  1.0000
  C   C21       1.0  0.6509725241359375  0.5620136604091145  0.840607818796755  1.0000
  C   C22       1.0  0.05407905028948779  0.9376186781263699  0.6596194388717294  1.0000
  C   C23       1.0  0.3490270616757129  0.4379840119227014  0.15939114445875896  1.0000
  C   C24       1.0  0.9459260642491429  0.06237903736064962  0.34038262290010124  1.0000
  C   C25       1.0  0.7202901267363868  0.49726612610135845  0.7618998436654109  1.0000
  C   C26       1.0  0.9794675418410677  0.002357130171233699  0.7383250809216831  1.0000
  C   C27       1.0  0.2797076161662774  0.5027315318453915  0.23809808675132874  1.0000
  C   C28       1.0  0.0205365542468384  0.9976416483752646  0.2616759317760682  1.0000
  C   C29       1.0  0.9424436141091376  0.4374565711201298  0.7354467251148334  1.0000
  C   C30       1.0  0.11501056840488373  0.06251204134884601  0.76474299421686  1.0000
  C   C31       1.0  0.05755710464812581  0.5625400170041956  0.26455174215030997  1.0000
  C   C32       1.0  0.8849934131881343  0.9374867583456633  0.2352595635453411  1.0000
  N   N1        1.0  0.7596703965604731  0.4141662490417417  0.5530077179559214  1.0000
  N   N2        1.0  0.7268638959201751  0.08565193255237348  0.9469398509802571  1.0000
  N   N3        1.0  0.2403271716801994  0.5858346573052488  0.4469913617439545  1.0000
  N   N4        1.0  0.27313849108408317  0.9143479183572651  0.053060798406789886  1.0000
  N   N5        1.0  0.7233739381701696  0.33520352534342385  0.5043251502635541  1.0000
  N   N6        1.0  0.5631315548280894  0.16482728861750937  0.9955692470293085  1.0000
  N   N7        1.0  0.2766239578883043  0.6647963272477355  0.495675664273783  1.0000
  N   N8        1.0  0.43686956540521754  0.8351725597514204  0.0044312288200388135  1.0000
  N   N9        1.0  0.5745207888592885  0.2852008507604893  0.5554032361176481  1.0000
  N   N10       1.0  0.4152982391618634  0.2147485685826496  0.9445742473945059  1.0000
  N   N11       1.0  0.42547824014479807  0.7147979176231799  0.4445970824293113  1.0000
  N   N12       1.0  0.5847055291082343  0.7852512637196867  0.055425030465784196  1.0000
  N   N13       1.0  0.5102423489147369  0.3311248547030772  0.6384176702643528  1.0000
  N   N14       1.0  0.47971653532662345  0.1685501481181504  0.861663547169158  1.0000
  N   N15       1.0  0.4897557954639709  0.6688760634882699  0.3615822687365976  1.0000
  N   N16       1.0  0.5202872329434739  0.8314496841841859  0.1383357306911321  1.0000
  O   O1        1.0  0.044325069502803995  0.36382171918231176  0.806798266875731  1.0000
  O   O2        1.0  0.21413019704188938  0.1364544776747749  0.6933361834361875  1.0000
  O   O3        1.0  0.955673135043014  0.6361759717568063  0.1932020679065403  1.0000
  O   O4        1.0  0.7858740930384656  0.8635421603676932  0.3066658945709548  1.0000
  O   O5        1.0  0.030442146098749987  0.459363922413729  0.6482728130897895  1.0000
  O   O6        1.0  0.13797674758604467  0.04061612868827069  0.8518593874187417  1.0000
  O   O7        1.0  0.9695597851016938  0.5406294621470807  0.351727768558831  1.0000
  O   O8        1.0  0.8620221067560437  0.959385888095639  0.1481420804113469  1.0000
  O   O9        1.0  0.7853461015860218  0.7164462273186486  0.4978964248247521  1.0000
  O   O10       1.0  0.9995206427384392  0.7835129596747237  0.0019327873956883157  1.0000
  O   O11       1.0  0.21465477032705144  0.2835525554500861  0.5021049265609818  1.0000
  O   O12       1.0  0.0004801690075240274  0.2164890503462402  0.998068168208725  1.0000
