data_image0
_chemical_formula_structural       Cd4H48C72N8O16
_chemical_formula_sum              "Cd4 H48 C72 N8 O16"
_cell_length_a       11.80782095700441
_cell_length_b       13.133606874008454
_cell_length_c       21.530846859012
_cell_angle_alpha    90.000104254193
_cell_angle_beta     90.00006119644547
_cell_angle_gamma    90.00007785104046

_space_group_name_H-M_alt    "P 1"
_space_group_IT_number       1

loop_
  _space_group_symop_operation_xyz
  'x, y, z'

loop_
  _atom_site_type_symbol
  _atom_site_label
  _atom_site_symmetry_multiplicity
  _atom_site_fract_x
  _atom_site_fract_y
  _atom_site_fract_z
  _atom_site_occupancy
  Cd  Cd1       1.0  2.2159553126000006e-06  0.6134172633174872  0.06050701733877868  1.0000
  Cd  Cd2       1.0  4.595211940699999e-06  0.38658370588419916  0.9394960053502429  1.0000
  Cd  Cd3       1.0  0.9999945046853964  0.11340804226069423  0.439496305743404  1.0000
  Cd  Cd4       1.0  0.9999918188633714  0.8865834897585572  0.5605026576421323  1.0000
  H   H1        1.0  2.37245807e-06  0.8672345396945289  0.8933266991658256  1.0000
  H   H2        1.0  1.0511212238e-06  0.1327664295009257  0.1066735368227185  1.0000
  H   H3        1.0  2.1718499000000093e-08  0.3672328507228216  0.6066730431135027  1.0000
  H   H4        1.0  8.611714151e-07  0.6327681184703879  0.39332672842437677  1.0000
  H   H5        1.0  6.141174111000001e-07  0.9254087964443659  0.7820352427218392  1.0000
  H   H6        1.0  2.687745564e-07  0.07459369556115551  0.21796545771671555  1.0000
  H   H7        1.0  1.7412077109999993e-07  0.4254074396974162  0.7179645640786416  1.0000
  H   H8        1.0  0.9999997808244527  0.5745926179410434  0.2820355000619087  1.0000
  H   H9        1.0  3.1994250799999977e-07  0.6146616242119549  0.7209575842843916  1.0000
  H   H10       1.0  5.629494595e-07  0.38534086779356613  0.2790431161541632  1.0000
  H   H11       1.0  0.999999917963727  0.1146610610502989  0.7790435638178861  1.0000
  H   H12       1.0  3.698239940000038e-08  0.8853389965895534  0.22095742922249426  1.0000
  H   H13       1.0  1.2292987178999998e-06  0.5554533768431469  0.8309077087993371  1.0000
  H   H14       1.0  5.004870544999999e-07  0.44454759234988483  0.16909159828887965  1.0000
  H   H15       1.0  0.9999997660882087  0.05545324686611511  0.6690929091852453  1.0000
  H   H16       1.0  1.888580385000001e-07  0.9445475721785004  0.330907619405643  1.0000
  H   H17       1.0  0.79463225884146  0.4694832556594691  0.10888380875893937  1.0000
  H   H18       1.0  0.794631373571157  0.5305164007649312  0.8911164278019752  1.0000
  H   H19       1.0  0.20537092780200075  0.9694815322197742  0.3911166580949582  1.0000
  H   H20       1.0  0.20537043105241537  0.030516642420167307  0.6088836980753739  1.0000
  H   H21       1.0  0.20537023679359834  0.5305168019819321  0.891117184282187  1.0000
  H   H22       1.0  0.20537112206151417  0.46948289546823946  0.10888270743906496  1.0000
  H   H23       1.0  0.7946341085212082  0.03051928682656071  0.608882941597592  1.0000
  H   H24       1.0  0.7946329114773505  0.96948189241013  0.3911168305152442  1.0000
  H   H25       1.0  0.5850025560450689  0.46383579001972935  0.11344232020741167  1.0000
  H   H26       1.0  0.5850033642105217  0.536164371536721  0.8865582581274435  1.0000
  H   H27       1.0  0.4150006220683621  0.96383354784021  0.38655721148271716  1.0000
  H   H28       1.0  0.4150001427358133  0.03616488307348221  0.6134423384646651  1.0000
  H   H29       1.0  0.4149999395895349  0.5361642676209828  0.8865582083837961  1.0000
  H   H30       1.0  0.414999978319365  0.46383492469835386  0.11344180601367529  1.0000
  H   H31       1.0  0.5850044142526656  0.036164986989049915  0.6134419237586426  1.0000
  H   H32       1.0  0.5850031997940731  0.9638344131615855  0.3865577256764538  1.0000
  H   H33       1.0  0.5833969553690536  0.7480698175674906  0.010953707900988296  1.0000
  H   H34       1.0  0.5833966871819456  0.2519303420254318  0.9890468694939397  1.0000
  H   H35       1.0  0.41660674379662044  0.24807069090353914  0.4890460489335167  1.0000
  H   H36       1.0  0.4166062987138802  0.7519300261900669  0.5109535019550647  1.0000
  H   H37       1.0  0.4166063871608329  0.2519294786675844  0.9890463562401306  1.0000
  H   H38       1.0  0.4166066553496677  0.7480712384260219  0.010953194648443798  1.0000
  H   H39       1.0  0.5833974456297  0.7519293667368175  0.5109535507583586  1.0000
  H   H40       1.0  0.583397890712895  0.2480700314509862  0.4890465621867292  1.0000
  H   H41       1.0  0.7931384430553547  0.7403500561495947  0.011186918848537198  1.0000
  H   H42       1.0  0.7931390329680708  0.25965035985495183  0.9888133168390423  1.0000
  H   H43       1.0  0.2068643975558686  0.2403499109732437  0.48881375832294777  1.0000
  H   H44       1.0  0.20686396458487613  0.7596497883020633  0.5111856698224029  1.0000
  H   H45       1.0  0.20686320568294286  0.2596500014905986  0.988813609742429  1.0000
  H   H46       1.0  0.20686261576874898  0.7403489363783893  0.011186282851667796  1.0000
  H   H47       1.0  0.7931414856641011  0.7596509080742994  0.5111863058197627  1.0000
  H   H48       1.0  0.7931402248413235  0.24034950793353008  0.48881439431896456  1.0000
  C   C1        1.0  8.1943368144e-06  0.6722508460876003  0.9352222956483371  1.0000
  C   C2        1.0  1.1575148093e-06  0.32774707749032944  0.0647784047901681  1.0000
  C   C3        1.0  0.9999921305378121  0.17224812048906565  0.5647784518754262  1.0000
  C   C4        1.0  0.9999941930173717  0.8277495027766478  0.43522236931314484  1.0000
  C   C5        1.0  3.0754504933999994e-06  0.7077931544807259  0.8692054043961972  1.0000
  C   C6        1.0  0.9999994201841176  0.292206903159979  0.13079512419501774  1.0000
  C   C7        1.0  0.999993915515013  0.2077906259585661  0.6307958469968182  1.0000
  C   C8        1.0  0.9999957956277113  0.7922100429310747  0.3692049741944316  1.0000
  C   C9        1.0  3.9877751661e-06  0.8123820721138916  0.8553077275810562  1.0000
  C   C10       1.0  0.9999993547568946  0.1876195083382513  0.1446928010112458  1.0000
  C   C11       1.0  0.9999957018262648  0.3123795850765418  0.6446917820133463  1.0000
  C   C12       1.0  0.9999965500034519  0.6876203224071064  0.355307645828482  1.0000
  C   C13       1.0  3.1051787062e-06  0.844635115489446  0.7936942841530478  1.0000
  C   C14       1.0  0.9999976966629445  0.15536570355430265  0.20630531553825895  1.0000
  C   C15       1.0  0.9999957862356934  0.3446335737852593  0.7063057256636256  1.0000
  C   C16       1.0  0.999996465595629  0.6553678565099974  0.2936941666289669  1.0000
  C   C17       1.0  4.632124089000001e-07  0.7731908457675519  0.7451350769881768  1.0000
  C   C18       1.0  0.9999969510452758  0.2268122574898115  0.2548640582534886  1.0000
  C   C19       1.0  0.9999940858260458  0.2731902104252129  0.7548639246885924  1.0000
  C   C20       1.0  0.9999947784172818  0.7268081742454414  0.2451355031514026  1.0000
  C   C21       1.0  2.092102676e-06  0.6691234910793328  0.7591683734685614  1.0000
  C   C22       1.0  0.9999987097409077  0.33087808937195723  0.24083261957291302  1.0000
  C   C23       1.0  0.9999948404676218  0.16912281385079814  0.7408346928363583  1.0000
  C   C24       1.0  0.9999957175709537  0.830877855038658  0.2591656639052288  1.0000
  C   C25       1.0  1.2805542582e-06  0.6365514186439402  0.8206675620399932  1.0000
  C   C26       1.0  0.999999521289574  0.36345168461688365  0.17933250210249693  1.0000
  C   C27       1.0  0.9999947559263942  0.1365497964208728  0.6793326814387511  1.0000
  C   C28       1.0  0.9999958021116058  0.8634501110631236  0.32066767530241685  1.0000
  C   C29       1.0  0.999996955392042  0.8072086694711801  0.6785769288933066  1.0000
  C   C30       1.0  0.9999944495448148  0.19279580644471395  0.32142249895080965  1.0000
  C   C31       1.0  0.9999924825936828  0.30720686015655485  0.8214228675640668  1.0000
  C   C32       1.0  0.9999946878581767  0.6927930473239814  0.17857656027627655  1.0000
  C   C33       1.0  0.7435813737484552  0.5293799147079454  0.08760366081794048  1.0000
  C   C34       1.0  0.7435821332989718  0.4706204407118265  0.9123960814185991  1.0000
  C   C35       1.0  0.2564219951534028  0.029377317783343005  0.41239724681391715  1.0000
  C   C36       1.0  0.256422029754809  0.97062091926685  0.5876026747821185  1.0000
  C   C37       1.0  0.2564219687829166  0.47062014293397436  0.9123973322234346  1.0000
  C   C38       1.0  0.2564220561233626  0.529377332708684  0.08760119602243319  1.0000
  C   C39       1.0  0.7435821942730385  0.9706235012617839  0.5876018884284588  1.0000
  C   C40       1.0  0.7435813127739337  0.0293768541572987  0.41239738935816195  1.0000
  C   C41       1.0  0.6259119072005676  0.5272380125903241  0.08986224513775197  1.0000
  C   C42       1.0  0.6259101248942471  0.4727621989760778  0.91013789268689  1.0000
  C   C43       1.0  0.3740923053636038  0.027236314181848804  0.41013866011925154  1.0000
  C   C44       1.0  0.3740915007056244  0.9727628281268326  0.5898613303385145  1.0000
  C   C45       1.0  0.3740914353303494  0.4727620450508997  0.9101382834537046  1.0000
  C   C46       1.0  0.37409152384120864  0.5272370972551813  0.08986031365407138  1.0000
  C   C47       1.0  0.6259127309589019  0.9727629820542563  0.5898614040223646  1.0000
  C   C48       1.0  0.6259109949275016  0.0272364681070272  0.4101382693524442  1.0000
  C   C49       1.0  0.5627927572207625  0.6056428983498281  0.06197298163461798  1.0000
  C   C50       1.0  0.5627926046688856  0.39435723605494405  0.9380280481525318  1.0000
  C   C51       1.0  0.4372107268533512  0.10564212176385725  0.438027546132133  1.0000
  C   C52       1.0  0.4372114432146859  0.8943578591136473  0.5619720168139679  1.0000
  C   C53       1.0  0.43721058531003365  0.3943563978866252  0.9380280114063307  1.0000
  C   C54       1.0  0.4372107378611219  0.6056428215848941  0.06197155153909509  1.0000
  C   C55       1.0  0.5627934625719462  0.8943571744703505  0.5619715891094045  1.0000
  C   C56       1.0  0.5627927462120823  0.10564219852740564  0.43802804732781897  1.0000
  C   C57       1.0  0.6249668342008476  0.6839397400865581  0.033391259909080886  1.0000
  C   C58       1.0  0.6249657722273837  0.31606123173176576  0.9666098062629584  1.0000
  C   C59       1.0  0.37503846190872986  0.183938972814417  0.4666093546977307  1.0000
  C   C60       1.0  0.3750356167255617  0.8160616934599362  0.5333901718640702  1.0000
  C   C61       1.0  0.3750365083305169  0.31606031755536185  0.966609733132287  1.0000
  C   C62       1.0  0.375035876509429  0.6839380645015755  0.033389793427751585  1.0000
  C   C63       1.0  0.6249691151025019  0.8160618462320817  0.5333893160957287  1.0000
  C   C64       1.0  0.6249668789094898  0.18393836418146492  0.4666108211770563  1.0000
  C   C65       1.0  0.7425575372052863  0.6806642452148427  0.03308614890573839  1.0000
  C   C66       1.0  0.7425581745654313  0.3193361089552838  0.9669149860813488  1.0000
  C   C67       1.0  0.2574452132689729  0.18066257369175534  0.4669153909667826  1.0000
  C   C68       1.0  0.2574457600213549  0.8193379488239504  0.5330831378797214  1.0000
  C   C69       1.0  0.2574449584302272  0.319335812427248  0.9669153085852995  1.0000
  C   C70       1.0  0.25744516796310524  0.6806631872777092  0.0330836847100286  1.0000
  C   C71       1.0  0.742558976157923  0.8193382453540611  0.533084208725512  1.0000
  C   C72       1.0  0.7425584294055341  0.180662870221866  0.4669164618125804  1.0000
  N   N1        1.0  0.8011297009014554  0.6043570263051522  0.05935633983694539  1.0000
  N   N2        1.0  0.8011295553922366  0.39564339946905863  0.9406443649768758  1.0000
  N   N3        1.0  0.19887378123119254  0.10435444335221433  0.4406460443022979  1.0000
  N   N4        1.0  0.19887110684756235  0.8956452461537767  0.5593538436161438  1.0000
  N   N5        1.0  0.1988736416304846  0.3956437927422273  0.940644653204849  1.0000
  N   N6        1.0  0.19887378713366388  0.6043536125461629  0.059353376913399786  1.0000
  N   N7        1.0  0.8011304081952488  0.8956463756929056  0.5593530909400853  1.0000
  N   N8        1.0  0.8011288480975409  0.10435405007991966  0.4406466849738989  1.0000
  O   O1        1.0  9.980205625499998e-06  0.737998272644937  0.9787547582204608  1.0000
  O   O2        1.0  1.9123353780999995e-06  0.26199965093523764  0.02124640666870189  1.0000
  O   O3        1.0  0.9999912908582687  0.23799770131034859  0.5212465266755826  1.0000
  O   O4        1.0  0.999994185802656  0.762001444767165  0.47875522341341525  1.0000
  O   O5        1.0  1.0674151233999997e-05  0.5762071790409139  0.9471720742584888  1.0000
  O   O6        1.0  2.0652862033999994e-06  0.42379150594454984  0.052828626181422984  1.0000
  O   O7        1.0  0.9999903525736755  0.07620517916884494  0.5528257800437401  1.0000
  O   O8        1.0  0.9999917364996237  0.9237932054983633  0.44717411224418396  1.0000
  O   O9        1.0  0.999997018103393  0.9036345644318261  0.6682155692061824  1.0000
  O   O10       1.0  0.9999935399427072  0.09637067289663291  0.33178896758717247  1.0000
  O   O11       1.0  0.999991718607262  0.4036335474520102  0.8317838697480795  1.0000
  O   O12       1.0  0.999992911154642  0.5963655986208211  0.1682150936411801  1.0000
  O   O13       1.0  0.9999960168923182  0.7417696124935915  0.6352906249475508  1.0000
  O   O14       1.0  0.9999945411501088  0.25824095466131786  0.364706016200209  1.0000
  O   O15       1.0  0.9999933222660571  0.24176793239329442  0.8647067766814158  1.0000
  O   O16       1.0  0.9999972357685393  0.7582304522763155  0.13529125780932819  1.0000
