data_image0
_chemical_formula_structural       Cu2H32C28Br4N16
_chemical_formula_sum              "Cu2 H32 C28 Br4 N16"
_cell_length_a       7.137820254661477
_cell_length_b       8.94155186455146
_cell_length_c       14.081055928039515
_cell_angle_alpha    89.99986048523444
_cell_angle_beta     89.99980516108144
_cell_angle_gamma    103.17292761000661

_space_group_name_H-M_alt    "P 1"
_space_group_IT_number       1

loop_
  _space_group_symop_operation_xyz
  'x, y, z'

loop_
  _atom_site_type_symbol
  _atom_site_label
  _atom_site_symmetry_multiplicity
  _atom_site_fract_x
  _atom_site_fract_y
  _atom_site_fract_z
  _atom_site_occupancy
  Cu  Cu1       1.0  0.5000001632989495  2.3517888789999506e-07  2.763994047000001e-07  1.0000
  Cu  Cu2       1.0  0.5000004187405763  0.49999927988576315  0.5000000392017938  1.0000
  H   H1        1.0  0.5622350503833219  0.36660068788511774  0.9606878389813645  1.0000
  H   H2        1.0  0.43776199818245953  0.13340209548469767  0.4606936618340285  1.0000
  H   H3        1.0  0.4377664447919755  0.6334001690827973  0.0393115292458859  1.0000
  H   H4        1.0  0.5622356235276911  0.8665999123977028  0.5393085470917498  1.0000
  H   H5        1.0  0.0857707580116625  0.30869277523898114  0.8240870352688034  1.0000
  H   H6        1.0  0.9142347431753707  0.19131188687997275  0.32408484122618836  1.0000
  H   H7        1.0  0.9142279356396231  0.6913080832845749  0.1759102024388355  1.0000
  H   H8        1.0  0.08576675200574604  0.8086889700917508  0.6759131066530273  1.0000
  H   H9        1.0  0.8514204451458341  0.82488849298241  0.9992482667345826  1.0000
  H   H10       1.0  0.14857809586590778  0.6751148608444167  0.49924884625705357  1.0000
  H   H11       1.0  0.1485772619569516  0.17510891974180245  0.0007518116725932999  1.0000
  H   H12       1.0  0.8514248000670221  0.32488599534280366  0.5007526524910233  1.0000
  H   H13       1.0  0.5368013403681219  0.5913268516885068  0.7567406264824044  1.0000
  H   H14       1.0  0.4632024045922379  0.9086743571066902  0.2567395932476941  1.0000
  H   H15       1.0  0.46319628135658053  0.4086751562034365  0.2432580315733119  1.0000
  H   H16       1.0  0.5368012344187392  0.09132420111300375  0.7432611953274773  1.0000
  H   H17       1.0  0.9780668389218762  0.5939614622365638  0.7953708672793098  1.0000
  H   H18       1.0  0.021946223925155512  0.9060487238855042  0.29537060369163726  1.0000
  H   H19       1.0  0.021933584332664673  0.406040544103547  0.2046285009479902  1.0000
  H   H20       1.0  0.9780588158521936  0.09394983355922898  0.7046301848823191  1.0000
  H   H21       1.0  0.02800446871616191  0.6290960217444305  0.9158583674263312  1.0000
  H   H22       1.0  0.9719951702093327  0.8709043336118679  0.4158543785412903  1.0000
  H   H23       1.0  0.9719942249263837  0.37090483677339847  0.0841410008033421  1.0000
  H   H24       1.0  0.028005996120342  0.12909537475880478  0.5841449896871183  1.0000
  H   H25       1.0  0.8884510721549219  0.059451676922549275  0.8888558195816358  1.0000
  H   H26       1.0  0.11155142533615957  0.44055378731299993  0.3888553478127648  1.0000
  H   H27       1.0  0.11154902225400314  0.9405491808203262  0.11114354864682952  1.0000
  H   H28       1.0  0.8884469394607777  0.559445922607594  0.6111440204180738  1.0000
  H   H29       1.0  0.3874474213991093  0.803886339155184  0.8264811022030614  1.0000
  H   H30       1.0  0.6125522925723105  0.6961121992527595  0.3264808446162988  1.0000
  H   H31       1.0  0.6125530018525183  0.19611566718302234  0.1735189761982525  1.0000
  H   H32       1.0  0.38744821605739327  0.3038852119177163  0.6735206541364747  1.0000
  C   C1        1.0  0.6824326503683552  0.32604324822128916  0.9317020133197573  1.0000
  C   C2        1.0  0.317565707770143  0.17395854153672724  0.43170443191886676  1.0000
  C   C3        1.0  0.3175639848253198  0.6739553138827573  0.068295224391413  1.0000
  C   C4        1.0  0.6824329858694966  0.8260423169791975  0.5682956464848203  1.0000
  C   C5        1.0  0.848375775382557  0.4090209370610579  0.8852493237855441  1.0000
  C   C6        1.0  0.1516264228285635  0.09098339795500719  0.3852493163308282  1.0000
  C   C7        1.0  0.15162118865090685  0.5909787736364078  0.1147493342724957  1.0000
  C   C8        1.0  0.848374743501111  0.9090163104156657  0.6147500518975804  1.0000
  C   C9        1.0  0.9510253901556283  0.29896056314900205  0.8618455341632583  1.0000
  C   C10       1.0  0.04897807185324871  0.2010427482537125  0.36184482656166483  1.0000
  C   C11       1.0  0.048972974644215045  0.701039146773503  0.1381531238935665  1.0000
  C   C12       1.0  0.9510216937100539  0.798956960891921  0.6381545416679585  1.0000
  C   C13       1.0  0.7544642059080218  0.783291003579009  0.9409537487294344  1.0000
  C   C14       1.0  0.2455352272601061  0.716709216921053  0.440953386325063  1.0000
  C   C15       1.0  0.24553588850089622  0.2167098541638594  0.059045619499031  1.0000
  C   C16       1.0  0.7544656102181265  0.28328934284856894  0.5590474022525385  1.0000
  C   C17       1.0  0.7582354341616906  0.666738556690447  0.8744375160202792  1.0000
  C   C18       1.0  0.24176940432266036  0.8332643160933627  0.3744376923326342  1.0000
  C   C19       1.0  0.24176466025014068  0.3332623010543329  0.1255611420341651  1.0000
  C   C20       1.0  0.7582348923766419  0.16673653931890434  0.6255638064142275  1.0000
  C   C21       1.0  0.5968373736691603  0.661526386530312  0.8172864062998926  1.0000
  C   C22       1.0  0.4031662037561574  0.8384756455273389  0.31728558443884214  1.0000
  C   C23       1.0  0.40316304958538046  0.3384756198097988  0.1827129619274075  1.0000
  C   C24       1.0  0.5968363633311567  0.1615240620626537  0.6827159143103927  1.0000
  C   C25       1.0  0.9116405744346496  0.5781230418450107  0.866325132844807  1.0000
  C   C26       1.0  0.08836433055499528  0.9218798745272918  0.3663261501739968  1.0000
  C   C27       1.0  0.08835919113156622  0.42187666730253426  0.1336735252108028  1.0000
  C   C28       1.0  0.9116393084589023  0.07811868369431352  0.6336739282271608  1.0000
  Br  Br1       1.0  0.20807434459100446  0.9910331965499422  0.8449825683111882  1.0000
  Br  Br2       1.0  0.7919245599802734  0.5089629452313955  0.3449886768662225  1.0000
  Br  Br3       1.0  0.7919240202030126  0.008966513368740396  0.1550175100936642  1.0000
  Br  Br4       1.0  0.20807702054690222  0.49103331655161503  0.6550185032786046  1.0000
  N   N1        1.0  0.6843297527108377  0.17579220950106839  0.9364993518623805  1.0000
  N   N2        1.0  0.31566823725236054  0.32420840588248717  0.4365015442972577  1.0000
  N   N3        1.0  0.31566968400684914  0.82420635104733  0.0635000163684083  1.0000
  N   N4        1.0  0.6843301275416565  0.6757913040362025  0.5634985341075947  1.0000
  N   N5        1.0  0.8485110364513774  0.16225962812617914  0.8935457649134406  1.0000
  N   N6        1.0  0.15149043604942852  0.33774236511475647  0.3935460910262877  1.0000
  N   N7        1.0  0.15149012987830454  0.8377400802445009  0.10645360331496792  1.0000
  N   N8        1.0  0.8485079287445885  0.6622573448039261  0.6064539873785649  1.0000
  N   N9        1.0  0.6033420524238622  0.8460865088117583  0.9248009239532208  1.0000
  N   N10       1.0  0.3966557835606182  0.6539126506613968  0.42480039523809415  1.0000
  N   N11       1.0  0.396657713136527  0.15391320033196368  0.07519915445041649  1.0000
  N   N12       1.0  0.603342252384877  0.3460859106581394  0.5752003933419303  1.0000
  N   N13       1.0  0.5088703455934436  0.7702517729469559  0.8498187609707486  1.0000
  N   N14       1.0  0.49113090665736076  0.7297477878812157  0.34981866269713896  1.0000
  N   N15       1.0  0.4911297488154744  0.22974908479591954  0.1501806072577097  1.0000
  N   N16       1.0  0.5088716604299535  0.2702519197087767  0.6501828360520889  1.0000
