data_image0
_chemical_formula_structural       Zn2H16C28S4N6O20
_chemical_formula_sum              "Zn2 H16 C28 S4 N6 O20"
_cell_length_a       9.694657821709942
_cell_length_b       11.01242031890157
_cell_length_c       19.23291229758863
_cell_angle_alpha    90.1805394997652
_cell_angle_beta     89.95655494163361
_cell_angle_gamma    89.92318378487406

_space_group_name_H-M_alt    "P 1"
_space_group_IT_number       1

loop_
  _space_group_symop_operation_xyz
  'x, y, z'

loop_
  _atom_site_type_symbol
  _atom_site_label
  _atom_site_symmetry_multiplicity
  _atom_site_fract_x
  _atom_site_fract_y
  _atom_site_fract_z
  _atom_site_occupancy
  Zn  Zn1       1.0  0.3474926690741285  0.5024262188891911  0.5005739487030141  1.0000
  Zn  Zn2       1.0  0.6421421691822786  0.5029408769748118  0.5006398597205362  1.0000
  H   H1        1.0  0.7155153963742434  0.1137404122885712  0.4965555790580254  1.0000
  H   H2        1.0  0.2727773581635731  0.8864818667906464  0.5072760290171986  1.0000
  H   H3        1.0  0.7151089821659297  0.8857757075525969  0.4934200964124286  1.0000
  H   H4        1.0  0.2719128257317323  0.11389021139169841  0.5042762381756845  1.0000
  H   H5        1.0  0.3383156893297539  0.3680039452499671  0.1518611945085198  1.0000
  H   H6        1.0  0.6777863023759281  0.37378948910271953  0.8466596854833525  1.0000
  H   H7        1.0  0.33184632220159926  0.6210014865143735  0.8506197109685018  1.0000
  H   H8        1.0  0.6758356355363019  0.6224587141870688  0.1523059986143451  1.0000
  H   H9        1.0  0.8621415540867117  0.6562608500938439  0.56170210267193  1.0000
  H   H10       1.0  0.12431474216838007  0.3407326034372317  0.44232612859161685  1.0000
  H   H11       1.0  0.863009782224502  0.34225942960389943  0.4411399397825306  1.0000
  H   H12       1.0  0.1233166250719577  0.6594767952584775  0.559123807248639  1.0000
  H   H13       1.0  0.3728212640795689  0.2784234981650684  0.39365696248655263  1.0000
  H   H14       1.0  0.634598965040034  0.2782213293758106  0.6066158593981542  1.0000
  H   H15       1.0  0.36649630920346965  0.715555522678976  0.6085872488121353  1.0000
  H   H16       1.0  0.5770688463703734  0.8277759006443688  0.30367302429247905  1.0000
  C   C1        1.0  0.4941721524088791  0.2613827421522927  0.5001826039981054  1.0000
  C   C2        1.0  0.4956369073988681  0.7383353035109295  0.5025997359602954  1.0000
  C   C3        1.0  0.5053003451700918  0.494779748655951  0.9335846073618441  1.0000
  C   C4        1.0  0.5068055112514642  0.4946094314094439  0.06692561673234108  1.0000
  C   C5        1.0  0.5006859964949157  0.4988274043184547  0.3692174855633468  1.0000
  C   C6        1.0  0.4973272394403451  0.49851041166503773  0.6323772316944627  1.0000
  C   C7        1.0  0.6191529837590081  0.0630708652093617  0.4980212347722528  1.0000
  C   C8        1.0  0.3689086701321358  0.93717113871665  0.504050971314328  1.0000
  C   C9        1.0  0.6192332374135887  0.937050053948845  0.4969357226369198  1.0000
  C   C10       1.0  0.36844414778704493  0.0632686170496228  0.5023695493904013  1.0000
  C   C11       1.0  0.49415225965599757  0.8736244576845922  0.5009828116919479  1.0000
  C   C12       1.0  0.4936839755627601  0.1266574041690092  0.5001884437729628  1.0000
  C   C13       1.0  0.9215954114045671  0.5872659557679185  0.5341677600669641  1.0000
  C   C14       1.0  0.06554836813336348  0.410966363957364  0.46888870679520517  1.0000
  C   C15       1.0  0.9221634253994253  0.4115535503812212  0.4684317894885623  1.0000
  C   C16       1.0  0.06502594954228869  0.5887252569665906  0.5329408330041332  1.0000
  C   C17       1.0  0.41178362780997446  0.4246896065421594  0.2522904983669747  1.0000
  C   C18       1.0  0.5978271373673464  0.42784727388217203  0.7471941051838797  1.0000
  C   C19       1.0  0.4056114349658841  0.567867268934272  0.7495323036830612  1.0000
  C   C20       1.0  0.597381876412733  0.5700830851311807  0.252580033945101  1.0000
  C   C21       1.0  0.41121177296911776  0.42522370858281994  0.17982391476830634  1.0000
  C   C22       1.0  0.6012603397607988  0.42853940236610544  0.8196372848700619  1.0000
  C   C23       1.0  0.40581958543474167  0.5657078429863135  0.8219462686662027  1.0000
  C   C24       1.0  0.6011165574865132  0.567036273994667  0.1800861070889823  1.0000
  C   C25       1.0  0.5066526749158412  0.49562538826324953  0.1434708848834276  1.0000
  C   C26       1.0  0.5040389564146466  0.4961274083595059  0.8571246081129331  1.0000
  C   C27       1.0  0.503427611088142  0.4982797999333499  0.2906340832901719  1.0000
  C   C28       1.0  0.4996147451469496  0.49741511118263304  0.7106498582924061  1.0000
  S   S1        1.0  0.29053900318613296  0.31968138749180514  0.290513139151912  1.0000
  S   S2        1.0  0.7241370470678063  0.32879688330151424  0.706517027206182  1.0000
  S   S3        1.0  0.28323652094990587  0.672349106484532  0.7116454875156252  1.0000
  S   S4        1.0  0.7148967742392642  0.6776953049553214  0.291502103241605  1.0000
  N   N1        1.0  0.13599759328189984  0.5002541121312305  0.5006029561464871  1.0000
  N   N2        1.0  0.8516273598552001  0.4993232436067815  0.5013379196518812  1.0000
  N   N3        1.0  0.6302524443958362  0.4952082818085586  0.0342717951052691  1.0000
  N   N4        1.0  0.3817474468616097  0.49374892308873813  0.966408911667962  1.0000
  N   N5        1.0  0.6294850747134078  0.4941664051549993  0.9656144075320725  1.0000
  N   N6        1.0  0.38264780992355435  0.49255405999267043  0.03498619142099099  1.0000
  O   O1        1.0  0.3881301364885203  0.31671625903517514  0.4755176489789931  1.0000
  O   O2        1.0  0.6048131597398407  0.6843381783208428  0.484457931312285  1.0000
  O   O3        1.0  0.3842121434259552  0.6848227808592783  0.523657980311107  1.0000
  O   O4        1.0  0.6002849049066513  0.31608335160369455  0.5240055732802064  1.0000
  O   O5        1.0  0.39191933799031625  0.5386145242793461  0.3980485909035849  1.0000
  O   O6        1.0  0.6060288943400779  0.5361898064116064  0.6028640522749527  1.0000
  O   O7        1.0  0.3882169599059465  0.4620957273850338  0.6023354944589272  1.0000
  O   O8        1.0  0.6067300100283147  0.457541644881836  0.3996796630212387  1.0000
  O   O9        1.0  0.18428908404045066  0.3849960202731638  0.327590236612842  1.0000
  O   O10       1.0  0.2541809145157501  0.23516804794675758  0.2367071967639873  1.0000
  O   O11       1.0  0.3835995754621635  0.2478073140884122  0.34416876590253054  1.0000
  O   O12       1.0  0.8209629476726475  0.39768681729679406  0.6657638851533179  1.0000
  O   O13       1.0  0.7717349363594364  0.24916743164438776  0.7602636088878612  1.0000
  O   O14       1.0  0.6305297912253707  0.24923221772505147  0.6561767346655287  1.0000
  O   O15       1.0  0.1774529651902625  0.6074383464085643  0.6742080477886105  1.0000
  O   O16       1.0  0.246287547403206  0.7563576678884373  0.7656230813283997  1.0000
  O   O17       1.0  0.3765397977434475  0.7449598007940139  0.658086484223695  1.0000
  O   O18       1.0  0.8006732487468965  0.6213306518231719  0.3426048136929154  1.0000
  O   O19       1.0  0.7725880137233858  0.7487806367711016  0.2360069243939478  1.0000
  O   O20       1.0  0.6096423692073641  0.7636458103390353  0.3348439799251111  1.0000
