data_image0
_chemical_formula_structural       Mg6H36C66N6O24
_chemical_formula_sum              "Mg6 H36 C66 N6 O24"
_cell_length_a       6.833889751695546
_cell_length_b       34.28142540301397
_cell_length_c       34.275003569911
_cell_angle_alpha    119.57539122530811
_cell_angle_beta     93.80265365904269
_cell_angle_gamma    93.8017559480733

_space_group_name_H-M_alt    "P 1"
_space_group_IT_number       1

loop_
  _space_group_symop_operation_xyz
  'x, y, z'

loop_
  _atom_site_type_symbol
  _atom_site_label
  _atom_site_symmetry_multiplicity
  _atom_site_fract_x
  _atom_site_fract_y
  _atom_site_fract_z
  _atom_site_occupancy
  Mg  Mg1       1.0  0.801395818202316  0.6948026763507259  0.3281857797106087  1.0000
  Mg  Mg2       1.0  0.4250184020708545  0.3036533751631866  0.668697856742071  1.0000
  Mg  Mg3       1.0  0.4732335843899592  0.6717984206951898  0.3666360480733745  1.0000
  Mg  Mg4       1.0  0.7564167448782655  0.3312788860182323  0.6348915014466243  1.0000
  Mg  Mg5       1.0  0.10676084220190055  0.6333535238951667  0.3051547669828167  1.0000
  Mg  Mg6       1.0  0.12131226489781001  0.3651172213445194  0.6963677114261275  1.0000
  H   H1        1.0  0.6648372594470545  0.4530403522821588  0.01786597447416945  1.0000
  H   H2        1.0  0.9240333185691727  0.47486224905183166  0.08285066721904863  1.0000
  H   H3        1.0  0.35674457017348976  0.5016347440413754  0.01047502291736893  1.0000
  H   H4        1.0  0.1089172029452854  0.48083788212227324  0.9480890795299645  1.0000
  H   H5        1.0  0.4923761836738123  0.5397499637814819  0.07526984109819072  1.0000
  H   H6        1.0  0.8517701015766905  0.5637209497220113  0.11684321153223466  1.0000
  H   H7        1.0  0.038653080300925145  0.6147546411858188  0.1920851893115769  1.0000
  H   H8        1.0  0.3264825783572078  0.5680169671014071  0.18110475564270712  1.0000
  H   H9        1.0  0.9107697358081169  0.4346238429346841  0.8972659025701547  1.0000
  H   H10       1.0  0.3643363868994314  0.4125190374794272  0.8804599905200448  1.0000
  H   H11       1.0  0.1800963595104861  0.37313298090577274  0.8031086422597725  1.0000
  H   H12       1.0  0.9012686631523293  0.4157830256024227  0.8226295512063758  1.0000
  H   H13       1.0  0.6465105998832995  0.9820171316190952  0.43516451400039813  1.0000
  H   H14       1.0  0.8409988228381595  0.9170782233047917  0.3919739688446171  1.0000
  H   H15       1.0  0.3460985577232448  0.9895071791612295  0.4910830127083942  1.0000
  H   H16       1.0  0.1603603844635373  0.05182938838557051  0.53270079653106  1.0000
  H   H17       1.0  0.41699220155248906  0.9247158891028421  0.46442637069776554  1.0000
  H   H18       1.0  0.7346313878437981  0.8830483620378615  0.4467118977012988  1.0000
  H   H19       1.0  0.8461441924829032  0.8077986492725843  0.4225098646627218  1.0000
  H   H20       1.0  0.14488891748319332  0.8189098948960877  0.3869927556067483  1.0000
  H   H21       1.0  0.01372195599419969  0.1025878917883318  0.537287333013694  1.0000
  H   H22       1.0  0.4844821476450179  0.11956304252755963  0.5321242591574347  1.0000
  H   H23       1.0  0.3777130581915102  0.19692530756957183  0.570035195162376  1.0000
  H   H24       1.0  0.07934783376106938  0.17735102037395487  0.5931063830051501  1.0000
  H   H25       1.0  0.2116893493741827  0.5648501976864679  0.5469943009654729  1.0000
  H   H26       1.0  0.44895077469287525  0.6079662217376838  0.5251109184746384  1.0000
  H   H27       1.0  0.8554190942021692  0.5089504310324601  0.49854786601463286  1.0000
  H   H28       1.0  0.6283119995345601  0.4673817421011749  0.5193241865657826  1.0000
  H   H29       1.0  0.9528913757591723  0.535585328567528  0.46029971814304116  1.0000
  H   H30       1.0  0.28822283245105496  0.5532200525942343  0.4363230510383859  1.0000
  H   H31       1.0  0.4241888761670722  0.5774591063947839  0.3853347065164173  1.0000
  H   H32       1.0  0.7584756918230795  0.6130901996870576  0.4319731771033446  1.0000
  H   H33       1.0  0.47660836157655234  0.46273466197209256  0.5654377395738877  1.0000
  H   H34       1.0  0.9521675863452401  0.4679162906502725  0.5874712106650435  1.0000
  H   H35       1.0  0.8074669595080195  0.4299522682837705  0.6268540304879693  1.0000
  H   H36       1.0  0.48597639567248774  0.40687865109688204  0.584212081052307  1.0000
  C   C1        1.0  0.7040593949939266  0.45171570726019183  0.9412579150658617  1.0000
  C   C2        1.0  0.866886734899211  0.46539559500348565  0.978557365560569  1.0000
  C   C3        1.0  0.8169686582592917  0.4641251420391798  0.017042463889197425  1.0000
  C   C4        1.0  0.9598222616997489  0.47624876687431345  0.05302384535529114  1.0000
  C   C5        1.0  0.15515844574436244  0.49120379923979135  0.052168696966141785  1.0000
  C   C6        1.0  0.20561095819029868  0.4922997256234681  0.013746702637469473  1.0000
  C   C7        1.0  0.06316987884208201  0.47914330470520394  0.977179961413583  1.0000
  C   C8        1.0  0.292938608441176  0.5062028600311024  0.09428537327116976  1.0000
  C   C9        1.0  0.5739739236555652  0.5620265176070093  0.14339464757543408  1.0000
  C   C10       1.0  0.7762172515617963  0.5757161598534352  0.14714572376832544  1.0000
  C   C11       1.0  0.8816958956216683  0.6043488280005322  0.18928142400667997  1.0000
  C   C12       1.0  0.7922428067702967  0.6206305279468011  0.22969236004300345  1.0000
  C   C13       1.0  0.5858975254906369  0.6067190968003261  0.22530353263111655  1.0000
  C   C14       1.0  0.48232596310943165  0.5779157905774  0.18259079176709045  1.0000
  C   C15       1.0  0.46884176902180047  0.6208886333328538  0.26373393477502577  1.0000
  C   C16       1.0  0.6467053198373166  0.4162721511908956  0.8570470995524389  1.0000
  C   C17       1.0  0.44052047318150767  0.40467591752489807  0.8510344580556791  1.0000
  C   C18       1.0  0.3389259869629839  0.38275820079768863  0.8079598599375687  1.0000
  C   C19       1.0  0.43387750176165707  0.3708199449023653  0.7688933728296448  1.0000
  C   C20       1.0  0.6419149832550133  0.3839221683177314  0.7753461805884571  1.0000
  C   C21       1.0  0.7425971588631557  0.40642237952457105  0.8191766458587538  1.0000
  C   C22       1.0  0.7595957553426588  0.3747658997955981  0.7377905315356231  1.0000
  C   C23       1.0  0.7627105650608501  0.05872553798669601  0.5104878227529426  1.0000
  C   C24       1.0  0.8878879910760773  0.021358248025833897  0.48682549623777044  1.0000
  C   C25       1.0  0.7994903904629638  0.9828662467438464  0.44707983551960234  1.0000
  C   C26       1.0  0.9064922040899293  0.9469071676793777  0.4231973717917301  1.0000
  C   C27       1.0  0.10280184268052757  0.9477956311676864  0.43896402369536985  1.0000
  C   C28       1.0  0.1916593400712472  0.9862047560991414  0.47847677264778105  1.0000
  C   C29       1.0  0.0856177562873484  0.02274110982232711  0.5019082413124992  1.0000
  C   C30       1.0  0.1985460629027996  0.9056844970382799  0.41185253324514554  1.0000
  C   C31       1.0  0.4301701971229902  0.8565615125656407  0.41862951447220825  1.0000
  C   C32       1.0  0.6286825524950502  0.8527705383880361  0.4284813379639446  1.0000
  C   C33       1.0  0.6919210932099631  0.8106337395694468  0.4149916539661405  1.0000
  C   C34       1.0  0.561989132054542  0.7702584120232175  0.3909287346588855  1.0000
  C   C35       1.0  0.36002078970282975  0.7746734112802116  0.38146616849052617  1.0000
  C   C36       1.0  0.29921011785613433  0.8173993042904402  0.39539872981800545  1.0000
  C   C37       1.0  0.20470273464570712  0.736232117736023  0.35716419097473573  1.0000
  C   C38       1.0  0.790324248908739  0.14295875024483004  0.5592077546642145  1.0000
  C   C39       1.0  0.5901615439088133  0.14898669657454627  0.5536397017438334  1.0000
  C   C40       1.0  0.5317308254091699  0.19206489385503295  0.5747673784435321  1.0000
  C   C41       1.0  0.6657119732148261  0.2311213669919283  0.601867072969867  1.0000
  C   C42       1.0  0.8673156134264064  0.2246584225858187  0.6084979459964047  1.0000
  C   C43       1.0  0.924175747871047  0.18081763358578945  0.5871825527767528  1.0000
  C   C44       1.0  0.0223260643905618  0.26221910419051403  0.6369451394640038  1.0000
  C   C45       1.0  0.2526110896909018  0.4895891906834395  0.5483675213954912  1.0000
  C   C46       1.0  0.40158258775885974  0.5132454536818402  0.5347210608261366  1.0000
  C   C47       1.0  0.35283476730280233  0.5529615281309364  0.5359482021121524  1.0000
  C   C48       1.0  0.4835036854711205  0.5767981796478382  0.5237972577659704  1.0000
  C   C49       1.0  0.6640662691258968  0.5610176996277831  0.5088849705487349  1.0000
  C   C50       1.0  0.7135475755581667  0.5215430113119128  0.5078500067692319  1.0000
  C   C51       1.0  0.5842106573767936  0.4981527879680527  0.5210077366099669  1.0000
  C   C52       1.0  0.7865419047420162  0.5880827186878154  0.4937868817766004  1.0000
  C   C53       1.0  0.011952770837709159  0.5813933050658805  0.4379632086319916  1.0000
  C   C54       1.0  0.2006647584536196  0.5715175087604224  0.4243260686222855  1.0000
  C   C55       1.0  0.2775260376599248  0.5850152535009981  0.3956991160743186  1.0000
  C   C56       1.0  0.17169226041227867  0.6090935987864442  0.37938386996729895  1.0000
  C   C57       1.0  0.9792187607504843  0.6186096123783714  0.39328007321125824  1.0000
  C   C58       1.0  0.9044225154949003  0.60467871547597  0.42206467737693043  1.0000
  C   C59       1.0  0.84798047046921  0.6428538090449223  0.37908910775066573  1.0000
  C   C60       1.0  0.23094430115479983  0.44081078516913413  0.5837570716634133  1.0000
  C   C61       1.0  0.03630806065773126  0.4463663145670722  0.5953305263718606  1.0000
  C   C62       1.0  0.9567315324676855  0.42520994883519597  0.6172496307884927  1.0000
  C   C63       1.0  0.06355142859213463  0.3980946311440051  0.6291903242481283  1.0000
  C   C64       1.0  0.25849654325322996  0.3914457189429754  0.6160751173572266  1.0000
  C   C65       1.0  0.33669262456149357  0.41279268750173526  0.5935959243712007  1.0000
  C   C66       1.0  0.385249526049776  0.3630369817740018  0.6252130219217308  1.0000
  N   N1        1.0  0.4611755115141065  0.5342392884441624  0.10079324106164486  1.0000
  N   N2        1.0  0.7633225525791758  0.4355145530345936  0.8989974739648334  1.0000
  N   N3        1.0  0.3601654309692321  0.8991750681070699  0.4334091705031897  1.0000
  N   N4        1.0  0.8645644912705283  0.10094894614905314  0.5365001769133144  1.0000
  N   N5        1.0  0.9268884371407039  0.5665810210396599  0.46575509147177735  1.0000
  N   N6        1.0  0.3282426940584103  0.4635374944018836  0.5645389809436808  1.0000
  O   O1        1.0  0.2891234269214068  0.6049911612031452  0.2577873815500667  1.0000
  O   O2        1.0  0.5521553192152666  0.6504154681028214  0.3036590933833737  1.0000
  O   O3        1.0  0.9013613242930205  0.6477405167755493  0.2695538520135586  1.0000
  O   O4        1.0  0.940338458080106  0.3906956819932716  0.7452435138922127  1.0000
  O   O5        1.0  0.6749846060992511  0.34945840544959594  0.696938396462592  1.0000
  O   O6        1.0  0.3270069105550136  0.3477698587754787  0.7281281661070623  1.0000
  O   O7        1.0  0.5284815572111086  0.45410470942893266  0.9484257044406166  1.0000
  O   O8        1.0  0.24839820800011134  0.4955668123359161  0.12240988657989507  1.0000
  O   O9        1.0  0.030923243689798603  0.7421734492146258  0.3472024430233846  1.0000
  O   O10       1.0  0.24830109137868558  0.6963265179908263  0.3467595130380802  1.0000
  O   O11       1.0  0.6313256052697086  0.7304016104040231  0.3781498153135276  1.0000
  O   O12       1.0  0.19561667986808123  0.25478607971639633  0.6454579009545683  1.0000
  O   O13       1.0  0.9782816110875814  0.3030539229079636  0.6525066883155831  1.0000
  O   O14       1.0  0.5993812348658452  0.27186511934367996  0.6195621360621999  1.0000
  O   O15       1.0  0.5799285639199853  0.051635275691126005  0.5057583672054662  1.0000
  O   O16       1.0  0.12591023894353262  0.8775443592992076  0.3730870126437935  1.0000
  O   O17       1.0  0.6840885534696924  0.6527981607509474  0.3949783005130882  1.0000
  O   O18       1.0  0.9018101884751744  0.6532162299859651  0.3495440469706353  1.0000
  O   O19       1.0  0.25365878823624394  0.621816369755912  0.35225263727646455  1.0000
  O   O20       1.0  0.5501242751719886  0.3545617645109831  0.6092957422452586  1.0000
  O   O21       1.0  0.32566733842337214  0.3474832653918157  0.6504926490609009  1.0000
  O   O22       1.0  0.9795427440146085  0.3804093022312359  0.6522468046557537  1.0000
  O   O23       1.0  0.07454557333888086  0.49429980878988294  0.5459474705932053  1.0000
  O   O24       1.0  0.7522398939936892  0.6268041716268229  0.5043564850004004  1.0000
