data_image0
_chemical_formula_structural       Zn2H12C18N2O8
_chemical_formula_sum              "Zn2 H12 C18 N2 O8"
_cell_length_a       9.594167480283895
_cell_length_b       11.0606156055172
_cell_length_c       11.210265080869567
_cell_angle_alpha    88.27471317803924
_cell_angle_beta     90.28730025716939
_cell_angle_gamma    90.1467094263882

_space_group_name_H-M_alt    "P 1"
_space_group_IT_number       1

loop_
  _space_group_symop_operation_xyz
  'x, y, z'

loop_
  _atom_site_type_symbol
  _atom_site_label
  _atom_site_symmetry_multiplicity
  _atom_site_fract_x
  _atom_site_fract_y
  _atom_site_fract_z
  _atom_site_occupancy
  Zn  Zn1       1.0  0.360419545034972  0.49966142976834504  0.49869242161933863  1.0000
  Zn  Zn2       1.0  0.6427428020625356  0.5003930238796953  0.5006943340083724  1.0000
  H   H1        1.0  0.7059510487781606  0.4794644245300502  0.1103471430072105  1.0000
  H   H2        1.0  0.8691732994507788  0.6366605935230539  0.6224459652817345  1.0000
  H   H3        1.0  0.13387079946505756  0.3631676476522471  0.3768857459345938  1.0000
  H   H4        1.0  0.13735816425686656  0.6369253943026719  0.6212959907594069  1.0000
  H   H5        1.0  0.70607486390994  0.5197549513348321  0.8908431901424265  1.0000
  H   H6        1.0  0.39523034025888387  0.5468443214698128  0.09537618519392768  1.0000
  H   H7        1.0  0.394688040292415  0.4534477876143156  0.9028280457039557  1.0000
  H   H8        1.0  0.7229255986165481  0.8873330726830561  0.535308338705974  1.0000
  H   H9        1.0  0.7215453106016199  0.11454172454510567  0.5319596408075924  1.0000
  H   H10       1.0  0.28122722497328567  0.1127014659969774  0.46347414202235626  1.0000
  H   H11       1.0  0.2814170644016656  0.8854890239256152  0.47211529101430466  1.0000
  H   H12       1.0  0.8657182003846985  0.3630270250792762  0.37796266174056825  1.0000
  C   C1        1.0  0.5023267479753529  0.7375830013764001  0.5066043099256419  1.0000
  C   C2        1.0  0.6260112372539266  0.06338634372716709  0.5176883215141785  1.0000
  C   C3        1.0  0.5014586123811781  0.12687209751955922  0.4967129993576549  1.0000
  C   C4        1.0  0.5021099800943674  0.8731473509159142  0.5043826974712857  1.0000
  C   C5        1.0  0.3772419524552362  0.06240668159374959  0.4799021092396032  1.0000
  C   C6        1.0  0.3773680171339747  0.936569960391729  0.4846274386776486  1.0000
  C   C7        1.0  0.9279707113955806  0.42357783043912184  0.43174010869664403  1.0000
  C   C8        1.0  0.9299646274203537  0.5761968418958787  0.5682181145163483  1.0000
  C   C9        1.0  0.07308361095554258  0.4236962450782685  0.43107343423980643  1.0000
  C   C10       1.0  0.07506222487186419  0.5762660397875338  0.5676877104451991  1.0000
  C   C11       1.0  0.5011758366581346  0.26252260242116415  0.4936228554981099  1.0000
  C   C12       1.0  0.5016319533296211  0.4864885747733395  0.7332382970947079  1.0000
  C   C13       1.0  0.5009771500540267  0.5137516719008914  0.2661375178870031  1.0000
  C   C14       1.0  0.6069595285592014  0.49862777802777447  0.06492069999293901  1.0000
  C   C15       1.0  0.6069183298475948  0.5009403035691803  0.9354673915236945  1.0000
  C   C16       1.0  0.4958670633594622  0.5211537978507436  0.1340118501392453  1.0000
  C   C17       1.0  0.49565875754436206  0.4788800719553378  0.8653013620724012  1.0000
  C   C18       1.0  0.6265400414717918  0.9375613037944814  0.5204132426522464  1.0000
  N   N1        1.0  0.14483618427208  0.4999813347068526  0.49909268090534914  1.0000
  N   N2        1.0  0.8581924096669837  0.49986803777397176  0.5002734926342924  1.0000
  O   O1        1.0  0.38537460565211745  0.6840348311279384  0.5205650220445079  1.0000
  O   O2        1.0  0.38472325372895705  0.3155429290095597  0.4754561393433363  1.0000
  O   O3        1.0  0.6196679361272713  0.6857455915563123  0.493457668422316  1.0000
  O   O4        1.0  0.6178304955565465  0.3152909865881596  0.5101235155172787  1.0000
  O   O5        1.0  0.38520061409341366  0.47217148377512796  0.6791105054582829  1.0000
  O   O6        1.0  0.3841048654602374  0.5276839990179667  0.3184832638265149  1.0000
  O   O7        1.0  0.6188298787081975  0.5066583512052033  0.6830564882967636  1.0000
  O   O8        1.0  0.6177335259841569  0.4940770228355119  0.3181458050365791  1.0000
