data_image0
_chemical_formula_structural       Zn2H24C44N6O16
_chemical_formula_sum              "Zn2 H24 C44 N6 O16"
_cell_length_a       15.914509035905857
_cell_length_b       17.266257657550433
_cell_length_c       17.97687735055806
_cell_angle_alpha    89.77969963619095
_cell_angle_beta     92.4068501919128
_cell_angle_gamma    95.693956655745

_space_group_name_H-M_alt    "P 1"
_space_group_IT_number       1

loop_
  _space_group_symop_operation_xyz
  'x, y, z'

loop_
  _atom_site_type_symbol
  _atom_site_label
  _atom_site_symmetry_multiplicity
  _atom_site_fract_x
  _atom_site_fract_y
  _atom_site_fract_z
  _atom_site_occupancy
  Zn  Zn1       1.0  0.4108954495262014  0.49612654270721634  0.49661001476187033  1.0000
  Zn  Zn2       1.0  0.5893337853107428  0.5038184198651903  0.5033134272277169  1.0000
  H   H1        1.0  0.7169700407938678  0.42671471736249345  0.423837029840783  1.0000
  H   H2        1.0  0.8762506525649346  0.4296190572955254  0.4243807663921189  1.0000
  H   H3        1.0  0.8887895123542935  0.6010191742038273  0.5995969290071771  1.0000
  H   H4        1.0  0.7284099093117364  0.590984327862202  0.5918858524578638  1.0000
  H   H5        1.0  0.11146479849812614  0.40031179824926977  0.3992772454913407  1.0000
  H   H6        1.0  0.12394581301047222  0.5695064336754427  0.5764777401187333  1.0000
  H   H7        1.0  0.2831877219774413  0.5723657129711271  0.5770740305875465  1.0000
  H   H8        1.0  0.2717627831731377  0.41028820053985987  0.40701092039582687  1.0000
  H   H9        1.0  0.6210927686630399  0.25908529247197276  0.5050104703030911  1.0000
  H   H10       1.0  0.6138048059597242  0.1128333605908267  0.5051326712242671  1.0000
  H   H11       1.0  0.3426778951861139  0.10000682338165492  0.49342311137211675  1.0000
  H   H12       1.0  0.350176667383913  0.24669627229026508  0.4929245843748619  1.0000
  H   H13       1.0  0.657123443304549  0.8998820175107197  0.5061017453040008  1.0000
  H   H14       1.0  0.3860031448943533  0.8870051219451652  0.4961324913413492  1.0000
  H   H15       1.0  0.37871301318455153  0.7407923812304986  0.49637139862825563  1.0000
  H   H16       1.0  0.6495905295095954  0.7531907383450617  0.5060571943811638  1.0000
  H   H17       1.0  0.3647398617826809  0.4830770656880645  0.7336653264548687  1.0000
  H   H18       1.0  0.6362415376231498  0.51572129188569  0.7442203756250265  1.0000
  H   H19       1.0  0.365511548220475  0.5057341531890387  0.2560624364060261  1.0000
  H   H20       1.0  0.6344061416806144  0.49500231220950763  0.26588592323775373  1.0000
  H   H21       1.0  0.614857268949969  0.5884371980730521  0.9622773409954705  1.0000
  H   H22       1.0  0.38373426646359843  0.4092537294006747  0.9522133505942918  1.0000
  H   H23       1.0  0.6046696484321361  0.4204199077093947  0.0458447213391295  1.0000
  H   H24       1.0  0.39357433879332876  0.5818231326569715  0.039594762653578607  1.0000
  C   C1        1.0  0.49086989934858866  0.3482359957159104  0.4983092966350853  1.0000
  C   C2        1.0  0.5000010985787641  0.5001890488063835  0.35367874096159824  1.0000
  C   C3        1.0  0.5089272619598334  0.6516730127098569  0.5016387126842048  1.0000
  C   C4        1.0  0.5006682320724993  0.49958116657460755  0.6462422892844799  1.0000
  C   C5        1.0  0.758030944635756  0.46403767099194243  0.46174439757455593  1.0000
  C   C6        1.0  0.8452783276569494  0.4655441074916169  0.4622587928260701  1.0000
  C   C7        1.0  0.8932683567263882  0.5155596296953606  0.5127672000278453  1.0000
  C   C8        1.0  0.8520732671718394  0.5619453588759171  0.560321066627502  1.0000
  C   C9        1.0  0.7642172291154453  0.5565653869553489  0.556233555360329  1.0000
  C   C10       1.0  0.14813970625034764  0.4389927386271567  0.4389167886965097  1.0000
  C   C11       1.0  0.106933479434197  0.4847107563812472  0.48709322561506235  1.0000
  C   C12       1.0  0.15492406008627313  0.5339723972003585  0.5382475115149248  1.0000
  C   C13       1.0  0.24216926218688434  0.5354700614177901  0.5387740704306978  1.0000
  C   C14       1.0  0.235976934089436  0.4443254335930007  0.44303590073779736  1.0000
  C   C15       1.0  0.486025271700747  0.26115886006031985  0.4984705750197235  1.0000
  C   C16       1.0  0.5605371131722593  0.2234889048603748  0.5020933858039811  1.0000
  C   C17       1.0  0.5567755081030656  0.14294056273779182  0.5023243908622491  1.0000
  C   C18       1.0  0.47755453064777964  0.09850414331564393  0.4990893514959893  1.0000
  C   C19       1.0  0.40307744416218594  0.13593060898025297  0.4957522764928513  1.0000
  C   C20       1.0  0.40730199791764937  0.21673065868321115  0.495377530897521  1.0000
  C   C21       1.0  0.59672234103855  0.8639614585553518  0.5040361932049535  1.0000
  C   C22       1.0  0.5222459208937666  0.901394372997999  0.5012303784684846  1.0000
  C   C23       1.0  0.44304515725782795  0.8569349817799505  0.4984600400219819  1.0000
  C   C24       1.0  0.43925871746871803  0.776395691390718  0.49875464215667625  1.0000
  C   C25       1.0  0.5137615442487019  0.7387355452556222  0.5016695312040654  1.0000
  C   C26       1.0  0.5924731462624778  0.7831602856103217  0.5041991959283294  1.0000
  C   C27       1.0  0.5005039231284202  0.4995438786251611  0.7300075440334339  1.0000
  C   C28       1.0  0.42426166249515523  0.48996010855653777  0.7662438294615512  1.0000
  C   C29       1.0  0.4229645543354438  0.4875528174137713  0.8437379748260768  1.0000
  C   C30       1.0  0.500151640749202  0.4999714440366177  0.8869826233217069  1.0000
  C   C31       1.0  0.5775652602412084  0.5122543096717181  0.8496680393529488  1.0000
  C   C32       1.0  0.5765289379906663  0.5092914345931165  0.7721246371540432  1.0000
  C   C33       1.0  0.49981899533217006  0.5000606636202035  0.9658274068424505  1.0000
  C   C34       1.0  0.49975370943555236  0.4998549420515985  0.0340849927354014  1.0000
  C   C35       1.0  0.49980016190959037  0.4998472022304059  0.11294339303579902  1.0000
  C   C36       1.0  0.42364157520727036  0.5059873078819664  0.1504122559786367  1.0000
  C   C37       1.0  0.4245463511998153  0.5036702299081667  0.2279770918573263  1.0000
  C   C38       1.0  0.49991447657637883  0.5002024805006614  0.269920304693926  1.0000
  C   C39       1.0  0.5752110992116928  0.49659413096065924  0.2335194086746739  1.0000
  C   C40       1.0  0.5760299446884146  0.49371373457081813  0.15604048423859504  1.0000
  C   C41       1.0  0.663825884026757  0.5288764135945241  0.887456079246121  1.0000
  C   C42       1.0  0.3366287686047685  0.47235350674294113  0.8751953220826894  1.0000
  C   C43       1.0  0.6608448013168345  0.4840944761299895  0.12476434436947413  1.0000
  C   C44       1.0  0.338713374561415  0.5141614826271166  0.11254949521450902  1.0000
  N   N1        1.0  0.7184494257852309  0.5086692594623585  0.5077825916099101  1.0000
  N   N2        1.0  0.9828788951578816  0.5243162720601691  0.5190172828062033  1.0000
  N   N3        1.0  0.017313639332861896  0.47604503497188233  0.48079154965769544  1.0000
  N   N4        1.0  0.28174240706815823  0.49151201746524015  0.4920953315192166  1.0000
  N   N5        1.0  0.4659348808359809  0.016355806547700504  0.49905606061639673  1.0000
  N   N6        1.0  0.533852679204543  0.9835517083646867  0.501352186620764  1.0000
  O   O1        1.0  0.4211835163975481  0.37895685144945196  0.49368755383363805  1.0000
  O   O2        1.0  0.5643641228701527  0.38520098662163355  0.5029597781535031  1.0000
  O   O3        1.0  0.5715696468612638  0.5008837098431085  0.38786317823395683  1.0000
  O   O4        1.0  0.4283742741691939  0.4994561934320247  0.38251397304546947  1.0000
  O   O5        1.0  0.5786097014647498  0.6209735976854347  0.5022834984952311  1.0000
  O   O6        1.0  0.4354251616444459  0.6146877662063234  0.5007683833843046  1.0000
  O   O7        1.0  0.4288638713915561  0.4941339016384915  0.6119609652565927  1.0000
  O   O8        1.0  0.5725974150499412  0.5051372349816676  0.6174880072399986  1.0000
  O   O9        1.0  0.670761265696349  0.5761644220863928  0.9481966396079216  1.0000
  O   O10       1.0  0.7262283777116566  0.5047513453063814  0.8628356181623503  1.0000
  O   O11       1.0  0.32844565261360265  0.424039570537893  0.9349384342234828  1.0000
  O   O12       1.0  0.27520788609207614  0.4989589280183964  0.8465600021007591  1.0000
  O   O13       1.0  0.6622932203523463  0.43725843784176993  0.06426902284628971  1.0000
  O   O14       1.0  0.7263645465015359  0.5134019450450183  0.1543355666987978  1.0000
  O   O15       1.0  0.336274786231222  0.5622604435130896  0.0525912158568218  1.0000
  O   O16       1.0  0.2737838567846326  0.48225583606916445  0.1363237510620152  1.0000
