data_image0
_chemical_formula_structural       Zn2H40C32N12Cl4O4
_chemical_formula_sum              "Zn2 H40 C32 N12 Cl4 O4"
_cell_length_a       8.88034311982385
_cell_length_b       8.88036521374781
_cell_length_c       13.752783794106819
_cell_angle_alpha    98.76775266036162
_cell_angle_beta     98.76781319014563
_cell_angle_gamma    106.18576853982832

_space_group_name_H-M_alt    "P 1"
_space_group_IT_number       1

loop_
  _space_group_symop_operation_xyz
  'x, y, z'

loop_
  _atom_site_type_symbol
  _atom_site_label
  _atom_site_symmetry_multiplicity
  _atom_site_fract_x
  _atom_site_fract_y
  _atom_site_fract_z
  _atom_site_occupancy
  Zn  Zn1       1.0  0.3721400137103359  0.6278600410488479  0.749999732131883  1.0000
  Zn  Zn2       1.0  0.6278594635989023  0.37213964047395354  0.2500000134890215  1.0000
  H   H1        1.0  0.39247123664453915  0.2625640196446212  0.6058288831951016  1.0000
  H   H2        1.0  0.7374361004483134  0.6075286659761969  0.8941713810350435  1.0000
  H   H3        1.0  0.6075305179590558  0.7374356570463333  0.39417108801718104  1.0000
  H   H4        1.0  0.26256337686092485  0.3924710155465973  0.10582836458586088  1.0000
  H   H5        1.0  0.3296575516831908  0.829729381710578  0.6099916417388797  1.0000
  H   H6        1.0  0.1702700690187129  0.6703420892562875  0.8900076698666908  1.0000
  H   H7        1.0  0.670341552915815  0.17026910172338452  0.39000794794627314  1.0000
  H   H8        1.0  0.8297286423535722  0.3296587927712621  0.10999211889427576  1.0000
  H   H9        1.0  0.3300065936722802  0.2679825693240971  0.4520354291523602  1.0000
  H   H10       1.0  0.7320178574663457  0.6699910586065767  0.04796381697052248  1.0000
  H   H11       1.0  0.6699940244691689  0.7320171119681046  0.5479637025707262  1.0000
  H   H12       1.0  0.26798238359480553  0.3300074202261455  0.9520366122038266  1.0000
  H   H13       1.0  0.5969826617659137  0.2199974586639755  0.9265594490654862  1.0000
  H   H14       1.0  0.7800014546613949  0.40301540201610203  0.5734405650127314  1.0000
  H   H15       1.0  0.40301453606393517  0.7800022255053348  0.073440797657554  1.0000
  H   H16       1.0  0.21999802046281053  0.5969842773213685  0.4265599073016801  1.0000
  H   H17       1.0  0.5471414130947423  0.9220151054011722  0.9124057779250165  1.0000
  H   H18       1.0  0.07798413711999785  0.45285547650178143  0.587594720581663  1.0000
  H   H19       1.0  0.45285655067205255  0.077983378263383  0.08759442565796148  1.0000
  H   H20       1.0  0.9220157290458885  0.5471418020567781  0.4124062793504564  1.0000
  H   H21       1.0  0.5031038338019371  0.31869020068581466  0.7763052659549883  1.0000
  H   H22       1.0  0.6813103365368178  0.4968960641232057  0.7236950507316349  1.0000
  H   H23       1.0  0.49689564569234085  0.6813094830223034  0.22369375297240876  1.0000
  H   H24       1.0  0.3186895134826456  0.5031048154884274  0.27630485082501366  1.0000
  H   H25       1.0  0.22940474356637705  0.9644795811719785  0.30517894289233277  1.0000
  H   H26       1.0  0.035520202507946366  0.7705963658338887  0.19482114133742806  1.0000
  H   H27       1.0  0.7705947359278937  0.0355201025361396  0.6948200760350646  1.0000
  H   H28       1.0  0.9644796496965498  0.22940451596306127  0.8051780335257134  1.0000
  H   H29       1.0  0.2638693734997943  0.15986966368666336  0.2800228092214141  1.0000
  H   H30       1.0  0.8401295930601834  0.7361308461511625  0.2199765844827439  1.0000
  H   H31       1.0  0.7361312446416547  0.8401300176055385  0.7199763225016651  1.0000
  H   H32       1.0  0.1598713956064586  0.2638700310445471  0.780023429869601  1.0000
  H   H33       1.0  0.005443107630654303  0.17159394613520354  0.3239949413539165  1.0000
  H   H34       1.0  0.8284047766888563  0.9945562309619544  0.17600498194607178  1.0000
  H   H35       1.0  0.9945567445738418  0.8284069356617465  0.676004233509225  1.0000
  H   H36       1.0  0.17159507333061438  0.005444648649671497  0.823994919610584  1.0000
  H   H37       1.0  0.9700385540179896  0.9813077301634928  0.35556757775715647  1.0000
  H   H38       1.0  0.018690327188380696  0.029961462074801694  0.1444316523250961  1.0000
  H   H39       1.0  0.029962061938427098  0.018691948943384794  0.6444322806594371  1.0000
  H   H40       1.0  0.9813095250161226  0.9700394197221555  0.8555675225380454  1.0000
  C   C1        1.0  0.41229485844196023  0.08249207719836697  0.6791269532523643  1.0000
  C   C2        1.0  0.9175076491931832  0.5877056917387974  0.820872651275316  1.0000
  C   C3        1.0  0.5877057596994816  0.9175076040938348  0.3208721784707151  1.0000
  C   C4        1.0  0.08249106217910909  0.4122951902887592  0.17912713748565068  1.0000
  C   C5        1.0  0.38787394040022594  0.9190202376241458  0.6785274266794942  1.0000
  C   C6        1.0  0.08097922109671873  0.6121261849506963  0.8214726543711848  1.0000
  C   C7        1.0  0.6121266755561905  0.08097944148272519  0.32147243173709933  1.0000
  C   C8        1.0  0.9190194880905338  0.3878746948915363  0.178527861083289  1.0000
  C   C9        1.0  0.29673290428027604  0.052321348105536486  0.49798695721099756  1.0000
  C   C10       1.0  0.9476789965154776  0.7032729762369524  0.002012408983261986  1.0000
  C   C11       1.0  0.7032669662556826  0.947675934823664  0.5020125893341003  1.0000
  C   C12       1.0  0.052320835172537286  0.29673150224243017  0.9979871208914374  1.0000
  C   C13       1.0  0.5363595244161202  0.13636596140850088  0.8558466914065334  1.0000
  C   C14       1.0  0.863634781894987  0.463638335845779  0.6441527618657972  1.0000
  C   C15       1.0  0.4636388164309722  0.8636337247155338  0.14415221472518164  1.0000
  C   C16       1.0  0.13636697270860754  0.5363613408451823  0.35584720934648567  1.0000
  C   C17       1.0  0.5097313699254827  0.9726925743939103  0.8490448691380194  1.0000
  C   C18       1.0  0.027307250524323513  0.4902679591168777  0.6509559107450613  1.0000
  C   C19       1.0  0.49026810519872294  0.027307104943559993  0.15095560317639917  1.0000
  C   C20       1.0  0.9726918540746894  0.5097305243170851  0.3490436789400917  1.0000
  C   C21       1.0  0.486360293287639  0.19116352027825198  0.7712098520033734  1.0000
  C   C22       1.0  0.8088356883799434  0.513640201654617  0.7287904154619085  1.0000
  C   C23       1.0  0.5136403226687705  0.808836158828626  0.22879000641322017  1.0000
  C   C24       1.0  0.19116379111432735  0.4863594820535011  0.27120860346548875  1.0000
  C   C25       1.0  0.2055515067515401  0.0788634641646411  0.3256861677994393  1.0000
  C   C26       1.0  0.921136629804991  0.7944480653522276  0.17431252239939  1.0000
  C   C27       1.0  0.7944483454529632  0.921137417632316  0.6743130070637022  1.0000
  C   C28       1.0  0.0788643610466835  0.20555281402880604  0.8256867652594407  1.0000
  C   C29       1.0  0.0249764449556196  0.054610170797246796  0.3047722522009266  1.0000
  C   C30       1.0  0.9453896972598484  0.9750228576881527  0.19522708292889487  1.0000
  C   C31       1.0  0.975023405063844  0.9453907088143864  0.6952276493557292  1.0000
  C   C32       1.0  0.054609782234422304  0.02497682601997299  0.8047719359985024  1.0000
  N   N1        1.0  0.43557699841192493  0.8684307289657837  0.7617929181667477  1.0000
  N   N2        1.0  0.13156993731683286  0.5644220009530087  0.7382071917447276  1.0000
  N   N3        1.0  0.5644224788973133  0.13156895255701068  0.23820682745415664  1.0000
  N   N4        1.0  0.8684291672821799  0.4355764824809468  0.26179239794043235  1.0000
  N   N5        1.0  0.3671068344082045  0.14043997123758334  0.5955800460389042  1.0000
  N   N6        1.0  0.8595605156122302  0.6328932452694999  0.9044202926151499  1.0000
  N   N7        1.0  0.6328949223804229  0.8595597076386948  0.4044191984798644  1.0000
  N   N8        1.0  0.14043895951197535  0.3671064340679706  0.0955801796992617  1.0000
  N   N9        1.0  0.2828121081246877  0.14690715987991604  0.43015094930963466  1.0000
  N   N10       1.0  0.8530919444925258  0.7171870068852895  0.06984905347533746  1.0000
  N   N11       1.0  0.7171881351214965  0.8530913211381231  0.5698487531712074  1.0000
  N   N12       1.0  0.1469075306316725  0.2828126724521809  0.930151418839074  1.0000
  Cl  Cl1       1.0  0.4816785554370425  0.5802447634055381  0.8957154357628312  1.0000
  Cl  Cl2       1.0  0.41975523400916603  0.5183224280283765  0.6042841481980403  1.0000
  Cl  Cl3       1.0  0.5183220605193739  0.41975491570133977  0.10428442265376249  1.0000
  Cl  Cl4       1.0  0.5802442433000721  0.48167725349441787  0.39571559742286405  1.0000
  O   O1        1.0  0.25141781524584417  0.9037444447358638  0.4756673687036964  1.0000
  O   O2        1.0  0.09625485649908679  0.7485926977390277  0.02433071011088116  1.0000
  O   O3        1.0  0.748583568832551  0.09625403605157595  0.5243317198793207  1.0000
  O   O4        1.0  0.9037438203953272  0.2514153842093521  0.9756676085926728  1.0000
