data_image0
_chemical_formula_structural       Cu2H32C32N4O8
_chemical_formula_sum              "Cu2 H32 C32 N4 O8"
_cell_length_a       9.872889307904998
_cell_length_b       9.568316250825031
_cell_length_c       10.764740145289306
_cell_angle_alpha    105.04906803922991
_cell_angle_beta     115.58199736781015
_cell_angle_gamma    106.60319939979345

_space_group_name_H-M_alt    "P 1"
_space_group_IT_number       1

loop_
  _space_group_symop_operation_xyz
  'x, y, z'

loop_
  _atom_site_type_symbol
  _atom_site_label
  _atom_site_symmetry_multiplicity
  _atom_site_fract_x
  _atom_site_fract_y
  _atom_site_fract_z
  _atom_site_occupancy
  Cu  Cu1       1.0  0.9404320238284214  0.6231657761366022  0.6250704046660402  1.0000
  Cu  Cu2       1.0  0.059550831889758606  0.37681558401558846  0.3749070559644636  1.0000
  H   H1        1.0  0.7934309906612144  0.08950467613771447  0.4233097592842513  1.0000
  H   H2        1.0  0.20657583430345744  0.9104821721204527  0.5767042642438723  1.0000
  H   H3        1.0  0.5895860917319096  0.060951152522001485  0.3763684921427952  1.0000
  H   H4        1.0  0.41041857832576767  0.9390601598731362  0.6236358521440623  1.0000
  H   H5        1.0  0.6803377248361357  0.9151363885418603  0.5307610834493276  1.0000
  H   H6        1.0  0.319663688172895  0.08485492367272227  0.46923059060625166  1.0000
  H   H7        1.0  0.6549153967737168  0.07394931091030797  0.6295303761102389  1.0000
  H   H8        1.0  0.3450509419662851  0.9260382014218534  0.3704608410218738  1.0000
  H   H9        1.0  0.9634051831936573  0.25420990634567886  0.7871529595969735  1.0000
  H   H10       1.0  0.0365694892038277  0.7457609541934572  0.21284014962930797  1.0000
  H   H11       1.0  0.9961246826317944  0.10397485930455726  0.6855817072921371  1.0000
  H   H12       1.0  0.0038450582361874487  0.896020892439864  0.31442770687635857  1.0000
  H   H13       1.0  0.057270431430609385  0.12193389941090514  0.9461698366016338  1.0000
  H   H14       1.0  0.9426998212624369  0.878051448908543  0.053836287485516596  1.0000
  H   H15       1.0  0.837774205441711  0.042235003080691086  0.8679466911841447  1.0000
  H   H16       1.0  0.16219271226477625  0.9577246921259073  0.13203512274586862  1.0000
  H   H17       1.0  0.9865327783758386  0.6237387032131777  0.913200830813615  1.0000
  H   H18       1.0  0.013455489842101534  0.376249733636186  0.08680739118925365  1.0000
  H   H19       1.0  0.21015499452182237  0.628129489026257  0.1500197666880679  1.0000
  H   H20       1.0  0.7898489695366849  0.3718444426985242  0.8499797634132239  1.0000
  H   H21       1.0  0.5218478332035942  0.6862070311378897  0.9642603428294054  1.0000
  H   H22       1.0  0.4781792975830469  0.3138428505824675  0.035749094067867256  1.0000
  H   H23       1.0  0.28780162580662955  0.6813370601264592  0.7398444915846911  1.0000
  H   H24       1.0  0.7121852551058936  0.3186573505590217  0.26014701307992993  1.0000
  H   H25       1.0  0.33510734917705787  0.45675499624253024  0.21794233072705546  1.0000
  H   H26       1.0  0.6649202695674246  0.5432691354380237  0.7820730422327387  1.0000
  H   H27       1.0  0.5609201090730237  0.4432190759245883  0.428512082053139  1.0000
  H   H28       1.0  0.4390986184566329  0.5567648607665985  0.5714742029945511  1.0000
  H   H29       1.0  0.9358204567528574  0.7928521341860132  0.44174332221337664  1.0000
  H   H30       1.0  0.06417939301661589  0.2071992839604205  0.5582764640947745  1.0000
  H   H31       1.0  0.7267751816929432  0.821078048722917  0.2270453319101761  1.0000
  H   H32       1.0  0.2732152711103025  0.17894549820174174  0.7729732883017845  1.0000
  C   C1        1.0  0.7817152754674906  0.2997338117204079  0.5445494213372798  1.0000
  C   C2        1.0  0.21830393612286506  0.7002686172027238  0.4554518156376162  1.0000
  C   C3        1.0  0.7220689272559895  0.11693721373493554  0.472953785317749  1.0000
  C   C4        1.0  0.27792824415925566  0.8830606167785715  0.5270397216071175  1.0000
  C   C5        1.0  0.7339056240759375  0.0483559710781805  0.5886909550555331  1.0000
  C   C6        1.0  0.2660530709422915  0.9516298201406456  0.41128389790949166  1.0000
  C   C7        1.0  0.9148303906914348  0.12186556215264227  0.7262106658119053  1.0000
  C   C8        1.0  0.0851348900067848  0.8781101141085725  0.27378281053004366  1.0000
  C   C9        1.0  0.9320043629546078  0.0472339588823232  0.8383397199983168  1.0000
  C   C10       1.0  0.0679705072420661  0.9527346731536068  0.1616482716802777  1.0000
  C   C11       1.0  0.9129699740488275  0.8760369192265426  0.7754774751970076  1.0000
  C   C12       1.0  0.08704265684693982  0.12395446368963547  0.22451294633589922  1.0000
  C   C13       1.0  0.10666506253821237  0.6345888180833794  0.929918622656871  1.0000
  C   C14       1.0  0.8933342354755209  0.3654019032964866  0.07009439361800675  1.0000
  C   C15       1.0  0.229374035366135  0.6353022771154571  0.058791026650013074  1.0000
  C   C16       1.0  0.7706439877967454  0.3646789008661457  0.941215679911551  1.0000
  C   C17       1.0  0.381724710486381  0.6505054685102534  0.07310469482790441  1.0000
  C   C18       1.0  0.6183091546941456  0.3495206024672583  0.9269051897638294  1.0000
  C   C19       1.0  0.4061135798269007  0.673001756169242  0.9593550066299558  1.0000
  C   C20       1.0  0.5938904036575677  0.3270202237885228  0.0406359012923473  1.0000
  C   C21       1.0  0.27690056015893566  0.6697914477531269  0.8335452599894282  1.0000
  C   C22       1.0  0.7230817651339124  0.3302176561530459  0.16644625007814548  1.0000
  C   C23       1.0  0.5110346602884164  0.6405109395475961  0.20199583182768066  1.0000
  C   C24       1.0  0.4889943202713595  0.35950532730286255  0.7980097682418049  1.0000
  C   C25       1.0  0.46576820163391364  0.5345302077477994  0.2616790043608006  1.0000
  C   C26       1.0  0.5342480530562381  0.4654825326922634  0.7383152705169352  1.0000
  C   C27       1.0  0.5916518808207911  0.525241847478149  0.38029835077634283  1.0000
  C   C28       1.0  0.4083473631222533  0.47475856758425994  0.6196937994288092  1.0000
  C   C29       1.0  0.8010982477136322  0.7196760694644478  0.38606489867118643  1.0000
  C   C30       1.0  0.1989117083647471  0.2803367400671631  0.6139539208272  1.0000
  C   C31       1.0  0.6834187858799297  0.7341411461691789  0.2663650921524408  1.0000
  C   C32       1.0  0.31660634532192233  0.26588488731751864  0.7336600141284395  1.0000
  N   N1        1.0  0.1281805967700294  0.6470219364349815  0.817211426333664  1.0000
  N   N2        1.0  0.871805632767625  0.3529850181327986  0.18279406144195315  1.0000
  N   N3        1.0  0.7566350654532243  0.6165198068603315  0.4416097697718371  1.0000
  N   N4        1.0  0.24335957904233393  0.3834684435029913  0.5583813415863333  1.0000
  O   O1        1.0  0.7372857365097191  0.35989696234620533  0.6289077965308111  1.0000
  O   O2        1.0  0.2627270153355851  0.6401096204416629  0.37108269132817634  1.0000
  O   O3        1.0  0.8779255842594721  0.386387625921209  0.5123058373404916  1.0000
  O   O4        1.0  0.1221039663747518  0.6136181494583893  0.4877020481296128  1.0000
  O   O5        1.0  0.009885592337710112  0.861248752051267  0.7260486328996478  1.0000
  O   O6        1.0  0.9901239609803907  0.13874351283695313  0.2739389661599246  1.0000
  O   O7        1.0  0.8112251886765236  0.7601643716719407  0.77330588995698  1.0000
  O   O8        1.0  0.18879946735665948  0.23982584392810932  0.22669257579397595  1.0000
