data_image0
_chemical_formula_structural       Ga4H32C48I12N8O36
_chemical_formula_sum              "Ga4 H32 C48 I12 N8 O36"
_cell_length_a       11.071579659000331
_cell_length_b       12.90531669918853
_cell_length_c       13.531281217976115
_cell_angle_alpha    114.86611878773014
_cell_angle_beta     90.00001316043169
_cell_angle_gamma    90.00001685448736

_space_group_name_H-M_alt    "P 1"
_space_group_IT_number       1

loop_
  _space_group_symop_operation_xyz
  'x, y, z'

loop_
  _atom_site_type_symbol
  _atom_site_label
  _atom_site_symmetry_multiplicity
  _atom_site_fract_x
  _atom_site_fract_y
  _atom_site_fract_z
  _atom_site_occupancy
  Ga  Ga1       1.0  0.2716868134893886  0.5401409529852259  0.7593529002429024  1.0000
  Ga  Ga2       1.0  0.7716868284201082  0.9598599108631729  0.2406472872578361  1.0000
  Ga  Ga3       1.0  0.7283135281963664  0.4598595418527935  0.24064713590691875  1.0000
  Ga  Ga4       1.0  0.22831261005226366  0.040140579721523295  0.759353486205278  1.0000
  H   H1        1.0  0.008447972270715799  0.569287603045872  0.8530833027763692  1.0000
  H   H2        1.0  0.5084470478406755  0.9307140074393774  0.14691713808081633  1.0000
  H   H3        1.0  0.9915523694157143  0.43071544966053227  0.14691850925859035  1.0000
  H   H4        1.0  0.4915514874180146  0.06928562910463398  0.8530832891915738  1.0000
  H   H5        1.0  0.9173985644934817  0.6421815778560784  0.04376917728218639  1.0000
  H   H6        1.0  0.4173987133720232  0.8578201994843653  0.9562314077959116  1.0000
  H   H7        1.0  0.08260087397947298  0.35782147485014093  0.9562326347526169  1.0000
  H   H8        1.0  0.582600725100157  0.14217943705983063  0.043769019476634724  1.0000
  H   H9        1.0  0.05259517449937331  0.711637437202775  0.20334796902066893  1.0000
  H   H10       1.0  0.5525943826255711  0.788364191294903  0.7966524874055168  1.0000
  H   H11       1.0  0.9474060704003477  0.28836476146330625  0.7966534968238934  1.0000
  H   H12       1.0  0.4474050558468008  0.21163629928980043  0.20334828605759012  1.0000
  H   H13       1.0  0.2723334831767161  0.7512350391382512  0.2768356357899577  1.0000
  H   H14       1.0  0.7723317540100962  0.7487658249736385  0.723164551938524  1.0000
  H   H15       1.0  0.7276686649362958  0.2487663054875071  0.723165483864193  1.0000
  H   H16       1.0  0.2276667812487928  0.25123466561088037  0.2768362215244338  1.0000
  H   H17       1.0  0.49000792345540833  0.7323534014399726  0.23870765778217876  1.0000
  H   H18       1.0  0.9900071146134053  0.7676458476570645  0.7612911770170713  1.0000
  H   H19       1.0  0.5099933214434316  0.26764538531721627  0.7612916859866773  1.0000
  H   H20       1.0  0.009992323858668299  0.2323537931402626  0.23870851294203282  1.0000
  H   H21       1.0  0.6614612940595209  0.6628116910810746  0.09784559892064232  1.0000
  H   H22       1.0  0.16145961434861525  0.8371882822598735  0.9021527288901369  1.0000
  H   H23       1.0  0.33854085405278767  0.3371879582230619  0.9021526164120246  1.0000
  H   H24       1.0  0.8385389209100681  0.1628122168309005  0.097846569945915  1.0000
  H   H25       1.0  0.720498133382712  0.5732469520206536  0.8999728375942626  1.0000
  H   H26       1.0  0.22049806692258758  0.9267521871144739  0.1000259021596507  1.0000
  H   H27       1.0  0.27950311151573  0.42675098920228294  0.10002468535711982  1.0000
  H   H28       1.0  0.779501371549685  0.073248307723361  0.8999741339900142  1.0000
  H   H29       1.0  0.5588716646581203  0.5194576736416394  0.7566402064515501  1.0000
  H   H30       1.0  0.058871656633861784  0.9805431118828024  0.24335843137078672  1.0000
  H   H31       1.0  0.4411277738138537  0.4805419714088117  0.2433587461940974  1.0000
  H   H32       1.0  0.9411277818383111  0.019457387208156297  0.7566408674654286  1.0000
  C   C1        1.0  0.0638763925133361  0.5991532730433492  0.9265030464063462  1.0000
  C   C2        1.0  0.5638754373576376  0.9008466519761031  0.07349672161712568  1.0000
  C   C3        1.0  0.9361248523862853  0.40084892987586335  0.07349768212475997  1.0000
  C   C4        1.0  0.4361230979010599  0.0991529845679082  0.9265037056552645  1.0000
  C   C5        1.0  0.014860685432807897  0.6396040627557795  0.03186264731974119  1.0000
  C   C6        1.0  0.5148590628900179  0.8603966963052585  0.9681374496082783  1.0000
  C   C7        1.0  0.9851414626802891  0.36039814016361765  0.968138081211528  1.0000
  C   C8        1.0  0.48513947236878613  0.1396029359856215  0.0318637149775611  1.0000
  C   C9        1.0  0.09088418337478288  0.6792145553472935  0.12136381683960452  1.0000
  C   C10       1.0  0.5908834254925495  0.8207853764384585  0.8786366980219358  1.0000
  C   C11       1.0  0.9091161583111571  0.3207867935312265  0.8786365655007773  1.0000
  C   C12       1.0  0.4091160129797301  0.1792142558526137  0.1213644665640672  1.0000
  C   C13       1.0  0.2174126474663467  0.675690834375864  0.10583315351409785  1.0000
  C   C14       1.0  0.7174118951261262  0.8243091490344698  0.8941674059690359  1.0000
  C   C15       1.0  0.782589500646466  0.3243096562093939  0.8941676199494923  1.0000
  C   C16       1.0  0.2825866401326707  0.17569048325641745  0.1058337586168037  1.0000
  C   C17       1.0  0.3041184506645038  0.7140796512438213  0.19268259890312583  1.0000
  C   C18       1.0  0.8041176609297834  0.7859195220088893  0.8073161703402436  1.0000
  C   C19       1.0  0.6958818910210525  0.28591998955369036  0.8073170910561275  1.0000
  C   C20       1.0  0.19588087432861556  0.21407926474774538  0.1926831734281294  1.0000
  C   C21       1.0  0.42564401341884667  0.7042503829175363  0.17150824415929125  1.0000
  C   C22       1.0  0.9256432329621376  0.7957488356654064  0.8284913052548006  1.0000
  C   C23       1.0  0.5743572314801  0.2957483995865217  0.8284918369230142  1.0000
  C   C24       1.0  0.0743553022967518  0.204251654919112  0.1715094682081499  1.0000
  C   C25       1.0  0.4698580959595232  0.6549681131701847  0.06172649888070938  1.0000
  C   C26       1.0  0.9698573630300444  0.8450311277055744  0.9382723288125021  1.0000
  C   C27       1.0  0.5301431489394162  0.3450306693338733  0.9382735822015961  1.0000
  C   C28       1.0  0.030142075442228092  0.154969367132253  0.06172770733716249  1.0000
  C   C29       1.0  0.5937094310709057  0.6371931124237661  0.033427696934118956  1.0000
  C   C30       1.0  0.0937086813311154  0.8628068290209612  0.966571344296874  1.0000
  C   C31       1.0  0.40629181382793417  0.3628056743334227  0.96657164683473  1.0000
  C   C32       1.0  0.906289853927575  0.13719367006981287  0.03342795453917799  1.0000
  C   C33       1.0  0.6261529753031354  0.5884235063064409  0.9246272806585979  1.0000
  C   C34       1.0  0.12615199354824108  0.9115764441223317  0.07537250932736576  1.0000
  C   C35       1.0  0.3738473663822218  0.4115752804505632  0.0753720631100947  1.0000
  C   C36       1.0  0.8738465417107405  0.08842490475581852  0.9246278730127031  1.0000
  C   C37       1.0  0.5368522417529533  0.5570831381634916  0.8432969800200922  1.0000
  C   C38       1.0  0.03685219664993869  0.9429167758300849  0.156702778473189  1.0000
  C   C39       1.0  0.46314719671892846  0.44291564859332766  0.1567023637484368  1.0000
  C   C40       1.0  0.9631472418225255  0.05708457304825031  0.8432976038670434  1.0000
  C   C41       1.0  0.25895606817808664  0.6309741940139304  0.9968006945610103  1.0000
  C   C42       1.0  0.7589559857115515  0.8690241025186937  0.0031984498783827805  1.0000
  C   C43       1.0  0.7410451767212436  0.36902629657114255  0.0032000789024166716  1.0000
  C   C44       1.0  0.24104345276062128  0.1309755340255094  0.9968019773941635  1.0000
  C   C45       1.0  0.38612400515789597  0.6196954397309327  0.9746249213200927  1.0000
  C   C46       1.0  0.8861230295321859  0.8803037627275074  0.02537461415681709  1.0000
  C   C47       1.0  0.6138772397410506  0.3803033427731251  0.025375159762212683  1.0000
  C   C48       1.0  0.1138755057266039  0.11969673211014249  0.974625421992684  1.0000
  I   I1        1.0  0.2913750827649864  0.7428939888724315  0.6668028072660235  1.0000
  I   I2        1.0  0.7913750540464477  0.7571060247152841  0.33319777830086383  1.0000
  I   I3        1.0  0.708624355706995  0.2571047936312567  0.3331972738159621  1.0000
  I   I4        1.0  0.20862528763930038  0.24289447012272797  0.666802257848957  1.0000
  I   I5        1.0  0.07014460942949088  0.41107327717018904  0.550901013531963  1.0000
  I   I6        1.0  0.5701436522133178  0.0889267798699933  0.4490995528002983  1.0000
  I   I7        1.0  0.9298566354695411  0.5889263636275075  0.4490986764274539  1.0000
  I   I8        1.0  0.4298548830453797  0.9110728566740178  0.5509008744720916  1.0000
  I   I9        1.0  0.4399454898501176  0.38453050291082036  0.5223553565019259  1.0000
  I   I10       1.0  0.9399454529098249  0.11546885097062898  0.47764499405409583  1.0000
  I   I11       1.0  0.5600557550492126  0.6154699876742455  0.47764541696150087  1.0000
  I   I12       1.0  0.0600557919890221  0.8845299357865598  0.5223543497147531  1.0000
  N   N1        1.0  0.1826697363283571  0.5959247209560843  0.9104069431307452  1.0000
  N   N2        1.0  0.6826687867714369  0.9040752482788365  0.08959360409989607  1.0000
  N   N3        1.0  0.8173306053575898  0.40407662792243565  0.08959343920964359  1.0000
  N   N4        1.0  0.31732974848715395  0.09592439251830603  0.9104060858590375  1.0000
  N   N5        1.0  0.4202148719304759  0.5725939027607652  0.8687793733203507  1.0000
  N   N6        1.0  0.9202139419864324  0.9274061676475185  0.1312205203696308  1.0000
  N   N7        1.0  0.5797863729686624  0.4274057337838002  0.13122105395251543  1.0000
  N   N8        1.0  0.079784593272457  0.0725943229370003  0.86878025309332  1.0000
  O   O1        1.0  0.29014852904275296  0.7050253649456264  0.786281787056467  1.0000
  O   O2        1.0  0.7901484799553556  0.7949755064352856  0.21371840695497468  1.0000
  O   O3        1.0  0.7098518126428955  0.2949751341455169  0.21371751177990464  1.0000
  O   O4        1.0  0.20985186173069073  0.20502583819011017  0.7862827126988636  1.0000
  O   O5        1.0  0.12275773693352221  0.5353449766701247  0.6781026956316156  1.0000
  O   O6        1.0  0.6227577761838744  0.9646549723735731  0.3218970931571549  1.0000
  O   O7        1.0  0.8772426047519346  0.4646538058337554  0.3218973854505265  1.0000
  O   O8        1.0  0.3772398558613261  0.0353455267170162  0.6781022056787407  1.0000
  O   O9        1.0  0.3859532329463206  0.510173165275333  0.6442817511030157  1.0000
  O   O10       1.0  0.8859541934751289  0.989826895407461  0.3557173931911209  1.0000
  O   O11       1.0  0.6140462055259448  0.4898273295625017  0.3557182850466419  1.0000
  O   O12       1.0  0.1140461482104271  0.010172745390050896  0.6442822967681325  1.0000
  O   O13       1.0  0.23541201288622907  0.8859131787670692  0.7590796728561247  1.0000
  O   O14       1.0  0.7354119094042558  0.6140876702809095  0.24092050185190317  1.0000
  O   O15       1.0  0.7645874255860434  0.11408731607075849  0.24092036329354022  1.0000
  O   O16       1.0  0.26458752906791005  0.38591282881004924  0.759078796984312  1.0000
  O   O17       1.0  0.11132481516736449  0.458447352070074  0.44626166162743175  1.0000
  O   O18       1.0  0.6113247741340756  0.0415510221973747  0.5537367522195924  1.0000
  O   O19       1.0  0.8886764297312835  0.5415505806466073  0.5537373359508564  1.0000
  O   O20       1.0  0.3886755675509903  0.958446914772253  0.4462615080450832  1.0000
  O   O21       1.0  0.20710698003750846  0.3200039297895714  0.5309855862427498  1.0000
  O   O22       1.0  0.7071069628004452  0.17999619163875014  0.4690135537639933  1.0000
  O   O23       1.0  0.7928933616482394  0.679996565048441  0.4690144499070712  1.0000
  O   O24       1.0  0.2928924756714295  0.8200025951180693  0.530985790004543  1.0000
  O   O25       1.0  0.452763982880917  0.7753684942245445  0.6681670901432428  1.0000
  O   O26       1.0  0.9527648458666815  0.7246315894643941  0.33183281502584794  1.0000
  O   O27       1.0  0.5472354555911565  0.22463114657278285  0.33183259981585433  1.0000
  O   O28       1.0  0.04723459260558369  0.27536890537343345  0.6681672211238167  1.0000
  O   O29       1.0  0.4554446227236112  0.27778144221257145  0.5785089001242981  1.0000
  O   O30       1.0  0.9554446066920264  0.22221877628628303  0.4214910647747701  1.0000
  O   O31       1.0  0.5445557189623357  0.7222199066659484  0.4214914822160836  1.0000
  O   O32       1.0  0.0445557349937218  0.7777817185517291  0.5785089713750509  1.0000
  O   O33       1.0  0.5943408136401516  0.43786797329340743  0.5386254108105888  1.0000
  O   O34       1.0  0.0943416262953036  0.0621320978724995  0.46137442674157825  1.0000
  O   O35       1.0  0.4056586248322205  0.562132517291296  0.4613753626525181  1.0000
  O   O36       1.0  0.9056596186036288  0.9378675471783212  0.5386245259043889  1.0000
