data_image0
_chemical_formula_structural       Zn5P2H16C16O20
_chemical_formula_sum              "Zn5 P2 H16 C16 O20"
_cell_length_a       7.265459521291893
_cell_length_b       9.586564932376616
_cell_length_c       10.961906270738199
_cell_angle_alpha    67.04540430444332
_cell_angle_beta     75.75283055675669
_cell_angle_gamma    73.4020794749045

_space_group_name_H-M_alt    "P 1"
_space_group_IT_number       1

loop_
  _space_group_symop_operation_xyz
  'x, y, z'

loop_
  _atom_site_type_symbol
  _atom_site_label
  _atom_site_symmetry_multiplicity
  _atom_site_fract_x
  _atom_site_fract_y
  _atom_site_fract_z
  _atom_site_occupancy
  Zn  Zn1       1.0  0.4369616449114062  0.6555221064136985  0.7068520714665565  1.0000
  Zn  Zn2       1.0  0.5630398646037662  0.3444807282555331  0.2931492599416358  1.0000
  Zn  Zn3       1.0  0.07350412869940476  0.7258662988248614  0.9651806599773916  1.0000
  Zn  Zn4       1.0  0.9265023509244159  0.27413425237654104  0.03481795098336697  1.0000
  Zn  Zn5       1.0  0.5000032482694508  0.499997824688613  0.9999993952212161  1.0000
  P   P1        1.0  0.86255447352665  0.6217802500741244  0.8034396766066363  1.0000
  P   P2        1.0  0.13744456372000258  0.37822602245586984  0.19656082130690306  1.0000
  H   H1        1.0  0.7219002338624564  0.9049273825995243  0.5861237622199552  1.0000
  H   H2        1.0  0.27809744648604356  0.09507407649196858  0.41387502964627015  1.0000
  H   H3        1.0  0.1858625806577692  0.4965226061405448  0.6285739671068878  1.0000
  H   H4        1.0  0.8141298021598616  0.5034729265167003  0.3714296279148782  1.0000
  H   H5        1.0  0.14664975368383176  0.8610892259916909  0.24569630905956064  1.0000
  H   H6        1.0  0.8533433823307063  0.1389038848073199  0.7543043825522628  1.0000
  H   H7        1.0  0.20763277821758663  0.49839477215553535  0.8850285987014671  1.0000
  H   H8        1.0  0.7923694844945004  0.5016056406554554  0.1149698292967755  1.0000
  H   H9        1.0  0.41829326320187493  0.8084157324267381  0.9629618190207264  1.0000
  H   H10       1.0  0.5817181530907759  0.1915826140814403  0.03703678611604736  1.0000
  H   H11       1.0  0.3858641733064587  0.7117665742027413  0.12126278306098469  1.0000
  H   H12       1.0  0.6141366800528515  0.2882338012308452  0.8787358855745846  1.0000
  H   H13       1.0  0.8223128051287887  0.7745225992969865  0.15366543115619885  1.0000
  H   H14       1.0  0.1777035366860886  0.2254735687761595  0.8463340730310659  1.0000
  H   H15       1.0  0.8873443212319999  0.9303898628355682  0.11965975982380424  1.0000
  H   H16       1.0  0.11266039473379408  0.06961180940115241  0.8803387337302834  1.0000
  C   C1        1.0  0.8510768907912406  0.8368320212705243  0.5442350958054046  1.0000
  C   C2        1.0  0.14891692695077546  0.16316814101783453  0.4557638711423022  1.0000
  C   C3        1.0  0.9480311052874059  0.6943480554932008  0.6253582927728583  1.0000
  C   C4        1.0  0.0519609153567728  0.3056533066050663  0.37464327139162623  1.0000
  C   C5        1.0  0.11242108799589799  0.6097291949705053  0.567663754733388  1.0000
  C   C6        1.0  0.8875716858451881  0.39026974526952785  0.43233490602115393  1.0000
  C   C7        1.0  0.9180654723536533  0.8938386003448643  0.406523857096367  1.0000
  C   C8        1.0  0.0819290539988557  0.1061592451180502  0.5934758259393147  1.0000
  C   C9        1.0  0.18586843978111017  0.6708444444664324  0.4314352792782115  1.0000
  C   C10       1.0  0.8141240210627531  0.3291509043834324  0.5685619816221741  1.0000
  C   C11       1.0  0.36248256774758386  0.5843766234201483  0.368027271538004  1.0000
  C   C12       1.0  0.6375154078947387  0.41561916377951746  0.631978980432393  1.0000
  C   C13       1.0  0.08878501076291917  0.812919393521213  0.35130987108485096  1.0000
  C   C14       1.0  0.9112088259939028  0.18707607148065358  0.6486898638016569  1.0000
  C   C15       1.0  0.8107710345175009  0.04201008332596251  0.31875599802819465  1.0000
  C   C16       1.0  0.1892255684902579  0.9579902324918028  0.6812452022683144  1.0000
  O   O1        1.0  0.28265564397803195  0.570242707510019  0.884379554764649  1.0000
  O   O2        1.0  0.7173483712454714  0.4297566105238531  0.11561989551474729  1.0000
  O   O3        1.0  0.6462533443546192  0.6146127610714842  0.8173942867972811  1.0000
  O   O4        1.0  0.3537453051469726  0.38539474864582257  0.18260856769571618  1.0000
  O   O5        1.0  0.35507655951330713  0.7272650066809875  0.030401709071426777  1.0000
  O   O6        1.0  0.6449302967089708  0.2727343335912948  0.9695954501843569  1.0000
  O   O7        1.0  0.8743356858899106  0.8573194869735448  0.07924056438103806  1.0000
  O   O8        1.0  0.1256711591857567  0.14267987955693684  0.9207574997492283  1.0000
  O   O9        1.0  0.4075177213887784  0.4363235457091221  0.4272220613993267  1.0000
  O   O10       1.0  0.5924760596350254  0.5636720505837259  0.5727821978595954  1.0000
  O   O11       1.0  0.4565235641209212  0.6560724006849127  0.25829413618085073  1.0000
  O   O12       1.0  0.5434737330723252  0.3439209797955058  0.7417112627658892  1.0000
  O   O13       1.0  0.6904271780276757  0.13008424302216068  0.3783991099555663  1.0000
  O   O14       1.0  0.30957081203965237  0.8699161626893998  0.6216036594525814  1.0000
  O   O15       1.0  0.8428612053482921  0.0711826351298086  0.19191791576291442  1.0000
  O   O16       1.0  0.15714100490917104  0.9288225537422717  0.808082458919969  1.0000
  O   O17       1.0  0.8678132661970466  0.7374842621683869  0.8659604705854914  1.0000
  O   O18       1.0  0.1321904012780095  0.2625255038184022  0.13403346627436719  1.0000
  O   O19       1.0  0.9893147720463772  0.4585978707751296  0.8593635194282212  1.0000
  O   O20       1.0  0.010682136090402057  0.5414107074610968  0.14063740790914633  1.0000
