data_image0
_chemical_formula_structural       Al2H20C30N4O12
_chemical_formula_sum              "Al2 H20 C30 N4 O12"
_cell_length_a       6.727002620988974
_cell_length_b       16.886804484895926
_cell_length_c       17.864827764756452
_cell_angle_alpha    85.49508782006842
_cell_angle_beta     78.8379894572217
_cell_angle_gamma    83.41596018750344

_space_group_name_H-M_alt    "P 1"
_space_group_IT_number       1

loop_
  _space_group_symop_operation_xyz
  'x, y, z'

loop_
  _atom_site_type_symbol
  _atom_site_label
  _atom_site_symmetry_multiplicity
  _atom_site_fract_x
  _atom_site_fract_y
  _atom_site_fract_z
  _atom_site_occupancy
  Al  Al1       1.0  0.5021174891446448  0.49943689569921224  0.4969970757499739  1.0000
  Al  Al2       1.0  0.0027747397819978415  0.49889773807096577  0.4963829126337346  1.0000
  H   H1        1.0  0.7596535124105444  0.5854291512257819  0.43341354030623336  1.0000
  H   H2        1.0  0.2291788629078652  0.4369508960713875  0.582690147349183  1.0000
  H   H3        1.0  0.1399273425733582  0.2668490864628056  0.455472706339016  1.0000
  H   H4        1.0  0.21003196805582286  0.11727800242702813  0.45613949611689725  1.0000
  H   H5        1.0  0.5690450257854065  0.09809990266268905  0.5301478269684026  1.0000
  H   H6        1.0  0.39685753086735776  0.8975202360291308  0.5333753616910573  1.0000
  H   H7        1.0  0.8297213770694326  0.8863258177160136  0.4594119926284606  1.0000
  H   H8        1.0  0.8994689056803364  0.7372729341316246  0.4599931684516463  1.0000
  H   H9        1.0  0.6892195003111468  0.49244533028942783  0.2636309256284335  1.0000
  H   H10       1.0  0.7612782808162207  0.49606528679159145  0.12229167991971934  1.0000
  H   H11       1.0  0.11737453664017741  0.4971624723384382  0.12341440613030838  1.0000
  H   H12       1.0  0.8890738210020712  0.5044658399775414  0.8710990686676753  1.0000
  H   H13       1.0  0.3156147880988767  0.506049415514234  0.732237314520802  1.0000
  H   H14       1.0  0.2452607856941781  0.5035395373850735  0.8733219381167531  1.0000
  H   H15       1.0  0.4208103642614559  0.3118072497537271  0.5242724184895451  1.0000
  H   H16       1.0  0.34040796712013577  0.2162915047511832  0.5445016880955862  1.0000
  H   H17       1.0  0.5383629772814086  0.6829134481224985  0.5397175342738266  1.0000
  H   H18       1.0  0.6009733263987014  0.7771499693723175  0.5571487459691229  1.0000
  H   H19       1.0  0.008008781458592242  0.4900988264281313  0.3250506736465368  1.0000
  H   H20       1.0  0.9912059466171923  0.5127979068322618  0.6691123092097229  1.0000
  C   C1        1.0  0.3265064597756079  0.4927022409683704  0.3579518653467346  1.0000
  C   C2        1.0  0.211540347245453  0.6446564734337061  0.49657134993091023  1.0000
  C   C3        1.0  0.6777649079075727  0.5056199211924555  0.6370422135871365  1.0000
  C   C4        1.0  0.7928884333998595  0.35474616901973394  0.49613654592645423  1.0000
  C   C5        1.0  0.818222272164675  0.2671479580725277  0.49466098272073117  1.0000
  C   C6        1.0  0.01700647990601568  0.22873191664639594  0.4735252901851937  1.0000
  C   C7        1.0  0.057184407013707486  0.14671634513620554  0.47382648205090305  1.0000
  C   C8        1.0  0.8911883384013065  0.10024878371410753  0.49608889398085415  1.0000
  C   C9        1.0  0.6928768222763891  0.13627228237926672  0.5148030215701737  1.0000
  C   C10       1.0  0.6499224783547388  0.22023379688623385  0.5147626299454586  1.0000
  C   C11       1.0  0.2882429531492433  0.8610715785034488  0.5182449964257998  1.0000
  C   C12       1.0  0.10975214183484626  0.8992073671754499  0.4984777598132055  1.0000
  C   C13       1.0  0.9651636877577868  0.855058058519461  0.47717444911660317  1.0000
  C   C14       1.0  0.0055107225813130194  0.7731302176354405  0.4773945638818304  1.0000
  C   C15       1.0  0.18366713875018792  0.732171905915216  0.4983187473555475  1.0000
  C   C16       1.0  0.3300400634188633  0.7769942561792861  0.5195123156918058  1.0000
  C   C17       1.0  0.3647356166082573  0.4925143285750267  0.2742456158252509  1.0000
  C   C18       1.0  0.5649184332536802  0.4933604439748722  0.23269931095959615  1.0000
  C   C19       1.0  0.6059421634853165  0.49534367068909557  0.1538509143536402  1.0000
  C   C20       1.0  0.44411013178454073  0.4968427629779556  0.1132410659638623  1.0000
  C   C21       1.0  0.24361329722298547  0.49588489980726563  0.15367147023849267  1.0000
  C   C22       1.0  0.20228019202129116  0.4934163028056916  0.23356000469097177  1.0000
  C   C23       1.0  0.48487708365527726  0.499270735203176  0.032446649497117605  1.0000
  C   C24       1.0  0.5225995686822811  0.5011903200009657  0.9627005689744337  1.0000
  C   C25       1.0  0.562654488810544  0.5033405642670135  0.8819285981763869  1.0000
  C   C26       1.0  0.7626551479874802  0.5048681860990599  0.8411038681873961  1.0000
  C   C27       1.0  0.8026268271899607  0.5072584909182113  0.7612590758501129  1.0000
  C   C28       1.0  0.640351523182083  0.5067079030894848  0.720775347988223  1.0000
  C   C29       1.0  0.44059954882513325  0.5055897153990261  0.7627606059627041  1.0000
  C   C30       1.0  0.40047505307891373  0.5041990870986126  0.8415742917785353  1.0000
  N   N1        1.0  0.9102119439579465  0.015824991360275906  0.49881125667157994  1.0000
  N   N2        1.0  0.08935773814024361  0.9834825920882583  0.49941601422406007  1.0000
  N   N3        1.0  0.45379587379679975  0.25241986820143586  0.5357752854896631  1.0000
  N   N4        1.0  0.5043755558468559  0.7428744557801111  0.541234469009126  1.0000
  O   O1        1.0  0.47301762768386596  0.49639562354654043  0.3925969410882644  1.0000
  O   O2        1.0  0.058114242176081486  0.6085082039773584  0.4910726173425246  1.0000
  O   O3        1.0  0.8659403384640993  0.5072274408749993  0.6016528166914981  1.0000
  O   O4        1.0  0.6136490439780999  0.39094543292684864  0.4969898474702746  1.0000
  O   O5        1.0  0.529692979369855  0.5024063904134269  0.6030283176726458  1.0000
  O   O6        1.0  0.9496605594130895  0.3903915250635209  0.49770092877102456  1.0000
  O   O7        1.0  0.13895638902145885  0.49019779934192825  0.392778363212912  1.0000
  O   O8        1.0  0.3896456443681941  0.6088321294841352  0.5000310870170566  1.0000
  O   O9        1.0  0.7600031268269092  0.5343634435407624  0.4622311036681168  1.0000
  O   O10       1.0  0.24376215237649743  0.46462512634745695  0.5326289536885653  1.0000
  O   O11       1.0  0.0062346299404580485  0.4925004847314513  0.2689500282201394  1.0000
  O   O12       1.0  0.9976490497990225  0.5101186997939566  0.7249242843917827  1.0000
