data_image0
_chemical_formula_structural       Cd4H40C52N8O28
_chemical_formula_sum              "Cd4 H40 C52 N8 O28"
_cell_length_a       8.026632007369788
_cell_length_b       12.7872914
_cell_length_c       18.8489
_cell_angle_alpha    90.0
_cell_angle_beta     94.33903089208644
_cell_angle_gamma    90.0

_space_group_name_H-M_alt    "P 1"
_space_group_IT_number       1

loop_
  _space_group_symop_operation_xyz
  'x, y, z'

loop_
  _atom_site_type_symbol
  _atom_site_label
  _atom_site_symmetry_multiplicity
  _atom_site_fract_x
  _atom_site_fract_y
  _atom_site_fract_z
  _atom_site_occupancy
  Cd  Cd1       1.0  0.886783034773778  0.8298098219611987  0.8809842863283492  1.0000
  Cd  Cd2       1.0  0.6132120403336003  0.32980792163694866  0.6190149448849384  1.0000
  Cd  Cd3       1.0  0.1132136819644742  0.1701892865286538  0.1190150243022003  1.0000
  Cd  Cd4       1.0  0.3867871752719552  0.6701919688793508  0.38098497678973325  1.0000
  H   H1        1.0  0.9271634809333378  0.8826544767721456  0.03624173885678769  1.0000
  H   H2        1.0  0.5728315941740405  0.38265570455366316  0.46375749235649977  1.0000
  H   H3        1.0  0.0728332358049144  0.11734697779703399  0.9637591633785689  1.0000
  H   H4        1.0  0.4271676214315079  0.6173371477246548  0.536241368248298  1.0000
  H   H5        1.0  0.0464401993658399  0.787701608176377  0.0224237041859539  1.0000
  H   H6        1.0  0.4535556601359829  0.2877028359578944  0.4775740137478408  1.0000
  H   H7        1.0  0.9535540185051092  0.2122967182870354  0.9775760564703404  1.0000
  H   H8        1.0  0.5464435554695726  0.7122915803733035  0.5224253773918903  1.0000
  H   H9        1.0  0.83211531481755  0.0651115215846261  0.920694372417863  1.0000
  H   H10       1.0  0.6678810097234802  0.5651110758295559  0.57930702118977  1.0000
  H   H11       1.0  0.1678789030533991  0.9348907150110009  0.0793048577034909  1.0000
  H   H12       1.0  0.332123203616682  0.4348895967131838  0.4206951836430335  1.0000
  H   H13       1.0  0.3082577714531283  0.1412253731857547  0.9271134374520713  1.0000
  H   H14       1.0  0.1917405869159978  0.6412194532455898  0.5728907274101829  1.0000
  H   H15       1.0  0.6917426935860718  0.8587807735420796  0.0728902382217669  1.0000
  H   H16       1.0  0.8082611275568612  0.35878200132359683  0.427108744238744  1.0000
  H   H17       1.0  0.480848288803621  0.8305112996799338  0.881745834928104  1.0000
  H   H18       1.0  0.0191450718308985  0.3305062712499094  0.6182533941013233  1.0000
  H   H19       1.0  0.5191434302000246  0.1694925009685804  0.11825702842863002  1.0000
  H   H20       1.0  0.9808603909429081  0.6694928372399502  0.3817440761716284  1.0000
  H   H21       1.0  0.4182629078024007  0.2623307700644091  0.9970126787445038  1.0000
  H   H22       1.0  0.0817342011330737  0.7623279782300116  0.5029882626535169  1.0000
  H   H23       1.0  0.5817313100685482  0.7376722485576579  0.0029886735166044973  1.0000
  H   H24       1.0  0.918261266171527  0.2376742583656153  0.49700782451280645  1.0000
  H   H25       1.0  0.583952803099635  0.3557665073621478  0.9880450463588628  1.0000
  H   H26       1.0  0.9160460203086984  0.8557637155277431  0.511956958292899  1.0000
  H   H27       1.0  0.4160339181694113  0.6442365112599191  0.011953411699991498  1.0000
  H   H28       1.0  0.0839506964295538  0.1442346109356691  0.4880450050123386  1.0000
  H   H29       1.0  0.5689008759086889  0.512999179795024  0.9264499018521449  1.0000
  H   H30       1.0  0.9311091924025021  0.0129964974443268  0.573549281881327  1.0000
  H   H31       1.0  0.4311020879978145  0.48699601856261404  0.0735512016561799  1.0000
  H   H32       1.0  0.0688987692386078  0.9870026110455257  0.4264498605056275  1.0000
  H   H33       1.0  0.7614910777072126  0.5294608364051214  0.7203591477581668  1.0000
  H   H34       1.0  0.7385164917366751  0.0294659743188461  0.7796420776058711  1.0000
  H   H35       1.0  0.2385081378983429  0.4705351439789638  0.2796418349863785  1.0000
  H   H36       1.0  0.2614952182053899  0.9705354802503336  0.2203577160798034  1.0000
  H   H37       1.0  0.47022560390468743  0.2728638842155391  0.7667401352075558  1.0000
  H   H38       1.0  0.0297702555971355  0.7728610923811414  0.7332612964708147  1.0000
  H   H39       1.0  0.52976736453261  0.7271344422478734  0.23325905465921437  1.0000
  H   H40       1.0  0.970236456610323  0.2271395801615981  0.2667399278012965  1.0000
  C   C1        1.0  0.7005724411961367  0.0440194864097663  0.9165427654408022  1.0000
  C   C2        1.0  0.7994238833448932  0.5440166945753688  0.5834591587017713  1.0000
  C   C3        1.0  0.2994242755421155  0.9559866603180751  0.0834602589343092  1.0000
  C   C4        1.0  0.2005778311279585  0.4559831959409308  0.4165419045519699  1.0000
  C   C5        1.0  0.5766686049155894  0.11749712687394978  0.9281177540187782  1.0000
  C   C6        1.0  0.9233314679263955  0.6174935530131123  0.571883760352641  1.0000
  C   C7        1.0  0.4233268623890112  0.8825105839067716  0.0718831079619875  1.0000
  C   C8        1.0  0.0766702465464633  0.38250633750318735  0.4281151807613455  1.0000
  C   C9        1.0  0.40967804918789613  0.08647022777630299  0.9206892113615552  1.0000
  C   C10       1.0  0.0903215586148818  0.5864658718890254  0.5793144632203493  1.0000
  C   C11       1.0  0.59031616868306  0.9135351369250913  0.07931479357424819  1.0000
  C   C12       1.0  0.9096826547252732  0.4135348006537143  0.4206845584028187  1.0000
  C   C13       1.0  0.3739042648987621  0.9816402557307811  0.9048424156361108  1.0000
  C   C14       1.0  0.126094093470364  0.4816367913536368  0.5951601576213221  1.0000
  C   C15       1.0  0.6260937012731418  0.0183635449177331  0.0951590573887842  1.0000
  C   C16       1.0  0.8739063715688431  0.5183630991626558  0.4048392737729998  1.0000
  C   C17       1.0  0.1965384121349913  0.9426108800492371  0.9011679010649375  1.0000
  C   C18       1.0  0.3034536990658836  0.4426066336456529  0.5988302266400183  1.0000
  C   C19       1.0  0.8034558057359575  0.0573913565463897  0.0988292069166619  1.0000
  C   C20       1.0  0.6965480154069752  0.5573932568706468  0.4011692450089015  1.0000
  C   C21       1.0  0.5047849386852619  0.9125372711847317  0.8944079120150193  1.0000
  C   C22       1.0  0.9952126352894126  0.4125345888340348  0.6055929913122711  1.0000
  C   C23       1.0  0.49521427692028663  0.087465747437335  0.1055951928692878  1.0000
  C   C24       1.0  0.0047890791834391  0.5874653016822649  0.3944064803366487  1.0000
  C   C25       1.0  0.5103224286255212  0.2922706524072822  0.9620247385329249  1.0000
  C   C26       1.0  0.9896776442164636  0.7922662965199975  0.5379773063734277  1.0000
  C   C27       1.0  0.489670539811776  0.7077308021619046  0.0379755124037118  1.0000
  C   C28       1.0  0.0103228208227435  0.2077335939963021  0.46202265555583466  1.0000
  C   C29       1.0  0.5108884220693213  0.3839945338228574  0.8534297391394644  1.0000
  C   C30       1.0  0.9891166485072631  0.8839940880677801  0.6465714057153917  1.0000
  C   C31       1.0  0.4891095441025755  0.6160037926405622  0.14657120335048998  1.0000
  C   C32       1.0  0.0108925625674985  0.1160081485278397  0.3534277769261536  1.0000
  C   C33       1.0  0.5825821743847328  0.4795073333513002  0.8740366769561162  1.0000
  C   C34       1.0  0.917421646758207  0.9795076696226701  0.6259638971092016  1.0000
  C   C35       1.0  0.4174182906544743  0.5204894290592321  0.1259638155080864  1.0000
  C   C36       1.0  0.0825875643165546  0.0204937849465168  0.3740352855323437  1.0000
  C   C37       1.0  0.6750839947202252  0.5331097717848223  0.825918453237577  1.0000
  C   C38       1.0  0.8249210758563592  0.0331109995663326  0.6740800389425914  1.0000
  C   C39       1.0  0.32491647031898213  0.4668846445463828  0.1740799170868783  1.0000
  C   C40       1.0  0.1750906340856986  0.9668904550028471  0.3259208158129637  1.0000
  C   C41       1.0  0.688575379281346  0.48959547445677026  0.7585767534314769  1.0000
  C   C42       1.0  0.8114321901625419  0.9895981568074674  0.7414244719325681  1.0000
  C   C43       1.0  0.3114250857578611  0.5103981598479876  0.2414232084977854  1.0000
  C   C44       1.0  0.1885807692131749  0.0104040797881524  0.2585758925426447  1.0000
  C   C45       1.0  0.526597551360581  0.34678962583115686  0.784633142220116  1.0000
  C   C46       1.0  0.9734037709150485  0.8467899621025268  0.7153673513360204  1.0000
  C   C47       1.0  0.4733991653776712  0.6532087006322556  0.21536935162006188  1.0000
  C   C48       1.0  0.0266041907260544  0.1532130565195402  0.2846296689111795  1.0000
  C   C49       1.0  0.7567732162418679  0.6358039201327657  0.8453911094008717  1.0000
  C   C50       1.0  0.7432306049010649  0.135805147914283  0.6546057509198776  1.0000
  C   C51       1.0  0.2432272487973393  0.3641928422777667  0.1546083219934502  1.0000
  C   C52       1.0  0.2567773567400451  0.8641978707077839  0.3453923303971962  1.0000
  N   N1        1.0  0.6649023599000188  0.9442038679121652  0.900078054433827  1.0000
  N   N2        1.0  0.8350952140746628  0.444200403535028  0.5999212572886493  1.0000
  N   N3        1.0  0.3350968557055367  0.0558022788156691  0.099922397775785  1.0000
  N   N4        1.0  0.164906500398196  0.5557994869812717  0.4000776838253302  1.0000
  N   N5        1.0  0.6134156980186773  0.39975784081998705  0.7380852183245209  1.0000
  N   N6        1.0  0.8865856242569521  0.8997597411442442  0.7619142141617345  1.0000
  N   N7        1.0  0.3865785198522715  0.6002342294318908  0.2619140117968328  1.0000
  N   N8        1.0  0.113428584552409  0.10024171342494269  0.2380856600331285  1.0000
  O   O1        1.0  0.6328768765632233  0.21530908414271718  0.9474628671552453  1.0000
  O   O2        1.0  0.8671219468451028  0.7153055102818726  0.5525391374965167  1.0000
  O   O3        1.0  0.3671198401750289  0.7846947165057969  0.0525406877548136  1.0000
  O   O4        1.0  0.1328785181940972  0.2846943802344271  0.44745923282793143  1.0000
  O   O5        1.0  0.4194786067446118  0.3255513517115887  0.898714012426467  1.0000
  O   O6        1.0  0.0805147538899149  0.8255454317714237  0.6012878692776482  1.0000
  O   O7        1.0  0.580513112259041  0.6744446286724965  0.1012867287905195  1.0000
  O   O8        1.0  0.9194869605829439  0.1744505486126613  0.39871054130139777  1.0000
  O   O9        1.0  0.8795125803598864  0.6651048868722924  0.81178262499607  1.0000
  O   O10       1.0  0.6204824947474918  0.1651006404687081  0.6882107703329012  1.0000
  O   O11       1.0  0.1204678937409014  0.3348989137762217  0.1882050210910506  1.0000
  O   O12       1.0  0.3795179702917153  0.8348961219418243  0.311784947316859  1.0000
  O   O13       1.0  0.6971277526209363  0.6889723338908169  0.8950607751372176  1.0000
  O   O14       1.0  0.802881066256603  0.1889735616723343  0.6049394294115444  1.0000
  O   O15       1.0  0.3028952022239865  0.3110173902817266  0.1049494610036348  1.0000
  O   O16       1.0  0.1971268953845069  0.8110278928968455  0.3950597129754101  1.0000
  O   O17       1.0  0.1723956057009701  0.846895535672239  0.8844825019515455  1.0000
  O   O18       1.0  0.32759525606625334  0.34689128926865453  0.6155187687084478  1.0000
  O   O19       1.0  0.8275998616036304  0.153107482949828  0.11551836002922042  1.0000
  O   O20       1.0  0.672405208972954  0.6531078192211979  0.38448172375575496  1.0000
  O   O21       1.0  0.08074839798261023  0.0053905082666716  0.9153938323392055  1.0000
  O   O22       1.0  0.4192487109528713  0.5053853703529398  0.5846055174540012  1.0000
  O   O23       1.0  0.919245819888346  0.9946109463025152  0.0846059283170888  1.0000
  O   O24       1.0  0.5807530035199875  0.4946129561104726  0.4153928931250448  1.0000
  O   O25       1.0  0.9342290282284935  0.8145157308294415  0.010332574846998508  1.0000
  O   O26       1.0  0.5657660468788848  0.3145161765845117  0.48966612583134855  1.0000
  O   O27       1.0  0.065766439076107  0.1854841596868582  0.9896682871337674  1.0000
  O   O28       1.0  0.4342319192930191  0.6854766756938062  0.5103326945188513  1.0000
