data_image0
_chemical_formula_structural       AlH12C27N3O12
_chemical_formula_sum              "Al1 H12 C27 N3 O12"
_cell_length_a       4.208490539775313
_cell_length_b       15.70763472838602
_cell_length_c       15.767649543987755
_cell_angle_alpha    60.15386896939184
_cell_angle_beta     87.26072026181119
_cell_angle_gamma    86.82073339305114

_space_group_name_H-M_alt    "P 1"
_space_group_IT_number       1

loop_
  _space_group_symop_operation_xyz
  'x, y, z'

loop_
  _atom_site_type_symbol
  _atom_site_label
  _atom_site_symmetry_multiplicity
  _atom_site_fract_x
  _atom_site_fract_y
  _atom_site_fract_z
  _atom_site_occupancy
  Al  Al1       1.0  0.9279670078296433  0.5022040777669545  0.49992995623156833  1.0000
  H   H1        1.0  0.12808979843833868  0.7548191627710638  0.52288680885232  1.0000
  H   H2        1.0  0.1576411377563716  0.8499111524279289  0.6113532150458383  1.0000
  H   H3        1.0  0.6430502501677396  0.6025302980298973  0.845798489134431  1.0000
  H   H4        1.0  0.6904073453389116  0.0456763277030703  0.6046589082495473  1.0000
  H   H5        1.0  0.20079867762601822  0.23744612603989176  0.7535034202893698  1.0000
  H   H6        1.0  0.22352962851390157  0.05329045980716529  0.8494681813767642  1.0000
  H   H7        1.0  0.6652739671618945  0.8496090317081982  0.04798931162670053  1.0000
  H   H8        1.0  0.2309521988331156  0.5154410137821087  0.2333883626191735  1.0000
  H   H9        1.0  0.2552790615384454  0.604092435721171  0.04989231416259072  1.0000
  H   H10       1.0  0.27616137837654253  0.4220208086473606  0.7927269518229705  1.0000
  H   H11       1.0  0.3301874475961526  0.27845841393145326  0.4247120914689545  1.0000
  H   H12       1.0  0.2690485350065187  0.7987531003142865  0.2801561936724325  1.0000
  C   C1        1.0  0.43659989141004735  0.575588609249607  0.3517461781987167  1.0000
  C   C2        1.0  0.39533024585378473  0.577044548474639  0.5742197568633995  1.0000
  C   C3        1.0  0.44123692206251536  0.35343937058753744  0.5746861365800555  1.0000
  C   C4        1.0  0.45345440009722887  0.9305871470818731  0.7864128176200748  1.0000
  C   C5        1.0  0.4260243548594786  0.7863685139342138  0.7867776299080514  1.0000
  C   C6        1.0  0.4577464953035602  0.7863501499932467  0.9303719161412475  1.0000
  C   C7        1.0  0.24164191680013403  0.7224834519860436  0.5934912100090343  1.0000
  C   C8        1.0  0.2578779043879821  0.7752299951850646  0.6424527390156883  1.0000
  C   C9        1.0  0.40362987400192923  0.731783762643879  0.7335547075270269  1.0000
  C   C10       1.0  0.5322422288451208  0.6356207289482679  0.7747559710836925  1.0000
  C   C11       1.0  0.5245834361587924  0.583569528181009  0.7247862750218771  1.0000
  C   C12       1.0  0.38076314615830137  0.6277456286140862  0.6328260904326086  1.0000
  C   C13       1.0  0.5883944759311389  0.0881530869525804  0.637413413583019  1.0000
  C   C14       1.0  0.5871979695725216  0.19044824880632666  0.5851881445483471  1.0000
  C   C15       1.0  0.4446674806561505  0.24417741495349793  0.6274862076779114  1.0000
  C   C16       1.0  0.31039056399500004  0.19456820449234158  0.7221267997028776  1.0000
  C   C17       1.0  0.3225564125128741  0.0926148080729519  0.7752857278152021  1.0000
  C   C18       1.0  0.45687866417342354  0.038928684498650105  0.7323378702769858  1.0000
  C   C19       1.0  0.5736238239810874  0.7759455062893537  0.08911887496761732  1.0000
  C   C20       1.0  0.5659447741042314  0.7263443152896086  0.19101327711223348  1.0000
  C   C21       1.0  0.4406634458809575  0.6319269196079207  0.24294243883465327  1.0000
  C   C22       1.0  0.32688570525113647  0.5884833077359631  0.19190472328637023  1.0000
  C   C23       1.0  0.34071258984828034  0.637364983919106  0.09038459085446951  1.0000
  C   C24       1.0  0.4603610849313783  0.7321012065886165  0.03834399355633868  1.0000
  C   C25       1.0  0.6796769246829582  0.4822676534971749  0.7722571322784261  1.0000
  C   C26       1.0  0.7396955920020504  0.23939255334274637  0.4846298926842109  1.0000
  C   C27       1.0  0.6922065659174167  0.7772466100803116  0.2411131221184204  1.0000
  N   N1        1.0  0.4316079464400318  0.8849670488348947  0.7338751539620034  1.0000
  N   N2        1.0  0.4392667235071031  0.7336624701227308  0.8848541561804664  1.0000
  N   N3        1.0  0.4675078257803166  0.8849491065373841  0.8844899874297453  1.0000
  O   O1        1.0  0.1998177038155262  0.3973423236639633  0.5899331549574995  1.0000
  O   O2        1.0  0.2097702891553723  0.5172072943895288  0.3945248251574609  1.0000
  O   O3        1.0  0.1691021632811669  0.5938015920702997  0.5162681857262469  1.0000
  O   O4        1.0  0.6822479059786913  0.3939625895799139  0.5193423262984567  1.0000
  O   O5        1.0  0.6413866383902301  0.5209960817721607  0.5868907090881877  1.0000
  O   O6        1.0  0.6647402714448558  0.5899109882999981  0.393172361220408  1.0000
  O   O7        1.0  0.5138861705762778  0.40431972734066335  0.7967171889642727  1.0000
  O   O8        1.0  0.9641288053963494  0.4738875097481596  0.7921384901645895  1.0000
  O   O9        1.0  0.5649137512132684  0.2922252761498427  0.4068889170600869  1.0000
  O   O10       1.0  0.02869794505937759  0.22598601877586336  0.47656574762171283  1.0000
  O   O11       1.0  0.5002951950545481  0.8030027031741869  0.29367756266743306  1.0000
  O   O12       1.0  0.9757907462329174  0.7977456181823044  0.22844025394300624  1.0000
