data_image0
_chemical_formula_structural       Zn4H66C82N4O22
_chemical_formula_sum              "Zn4 H66 C82 N4 O22"
_cell_length_a       10.948101532371918
_cell_length_b       13.998203757634842
_cell_length_c       26.504828410060345
_cell_angle_alpha    90.8021575850087
_cell_angle_beta     87.98317142074373
_cell_angle_gamma    90.91369031226878

_space_group_name_H-M_alt    "P 1"
_space_group_IT_number       1

loop_
  _space_group_symop_operation_xyz
  'x, y, z'

loop_
  _atom_site_type_symbol
  _atom_site_label
  _atom_site_symmetry_multiplicity
  _atom_site_fract_x
  _atom_site_fract_y
  _atom_site_fract_z
  _atom_site_occupancy
  Zn  Zn1       1.0  0.5297468563774997  0.3940152042995352  0.500364281638717  1.0000
  Zn  Zn2       1.0  0.5356938051860354  0.5977296614502309  0.4987401627354727  1.0000
  Zn  Zn3       1.0  0.47466823503604144  0.6123908226431211  0.0822883104281118  1.0000
  Zn  Zn4       1.0  0.46578991340933834  0.40915902898359496  0.0875235103126997  1.0000
  H   H1        1.0  0.7229528342392156  0.06068438398950349  0.46999008469529  1.0000
  H   H2        1.0  0.4584994548407834  0.9339354877334715  0.5765348833985655  1.0000
  H   H3        1.0  0.605497042403371  0.7441475513254757  0.4299546954693838  1.0000
  H   H4        1.0  0.6116667852462854  0.9225947534637768  0.4236325987508494  1.0000
  H   H5        1.0  0.36348997812697087  0.2438722505523927  0.5270654452194918  1.0000
  H   H6        1.0  0.34882320987318133  0.0653354055979349  0.5287797855296361  1.0000
  H   H7        1.0  0.6374431059276731  0.3932065817356118  0.1893242123716874  1.0000
  H   H8        1.0  0.6461844597352169  0.35481468117141907  0.37467981549309565  1.0000
  H   H9        1.0  0.5757530538767596  0.3561464166761326  0.7572999648545178  1.0000
  H   H10       1.0  0.4977656420223439  0.6527182421238109  0.8237313621719622  1.0000
  H   H11       1.0  0.4647661821978629  0.3529883207039078  0.92122637791541  1.0000
  H   H12       1.0  0.46428264430363697  0.3444503953793117  0.8285802400026228  1.0000
  H   H13       1.0  0.434216782139096  0.6337002561842838  0.6620523264822467  1.0000
  H   H14       1.0  0.4051636155195837  0.6328519336554237  0.7543657160782969  1.0000
  H   H15       1.0  0.7971296150572726  0.5748913789933496  0.5839014672230647  1.0000
  H   H16       1.0  0.24967472872475582  0.5850966429799839  0.586102730344841  1.0000
  H   H17       1.0  0.5711073739963978  0.9467152302044397  0.1594802919579337  1.0000
  H   H18       1.0  0.5125053562740973  0.0728155787297879  0.005507454087201301  1.0000
  H   H19       1.0  0.45355971277344753  0.2634084849636906  0.161208585524804  1.0000
  H   H20       1.0  0.456095933694172  0.0859682945284419  0.16819671386753748  1.0000
  H   H21       1.0  0.3835901806317139  0.7623366905891229  0.022814692502755897  1.0000
  H   H22       1.0  0.3864765449050082  0.9394613810783383  0.0174150518470881  1.0000
  H   H23       1.0  0.7390068774540948  0.4078791824985117  0.009011963673735602  1.0000
  H   H24       1.0  0.19203266802976762  0.4117079388777896  0.9977971735688413  1.0000
  H   H25       1.0  0.743584261967598  0.31497355565155527  0.47656783133857056  1.0000
  H   H26       1.0  0.4766199223125581  0.6809077949313218  0.5857367064604944  1.0000
  H   H27       1.0  0.602126626221434  0.35015103239252443  0.6244249963601263  1.0000
  H   H28       1.0  0.48499294086975914  0.6674156668661623  0.9560700758492117  1.0000
  H   H29       1.0  0.5418631654705521  0.6948167682600541  0.1692925006779973  1.0000
  H   H30       1.0  0.5038117639605914  0.3264361368730133  0.9982574934683228  1.0000
  H   H31       1.0  0.24800167687086366  0.6268909534746427  0.34885894625116975  1.0000
  H   H32       1.0  0.3441132736392092  0.6101342310867822  0.40033890092565366  1.0000
  H   H33       1.0  0.37298763978334654  0.7053411427598347  0.35803065660766725  1.0000
  H   H34       1.0  0.3553738892393028  0.7198499301278148  0.2685761247052199  1.0000
  H   H35       1.0  0.3353848910707172  0.6523159910622454  0.2124731798230712  1.0000
  H   H36       1.0  0.23503961364988152  0.634902200522255  0.2656465126085905  1.0000
  H   H37       1.0  0.7723928142619059  0.1815967126051348  0.2176568028193415  1.0000
  H   H38       1.0  0.7834989980453814  0.2789599897693336  0.17505938405712126  1.0000
  H   H39       1.0  0.8907850708210177  0.2675626208278672  0.2233806832231267  1.0000
  H   H40       1.0  0.8890226031066744  0.24081548041050374  0.3163581631163197  1.0000
  H   H41       1.0  0.777633440433739  0.22716061878573868  0.36636946672317805  1.0000
  H   H42       1.0  0.7676707420395841  0.1576783612103867  0.3098522816366867  1.0000
  H   H43       1.0  0.17809158142136278  0.44073518098939957  0.3859729250981517  1.0000
  H   H44       1.0  0.2754357149062301  0.3913802883719413  0.43024275754046937  1.0000
  H   H45       1.0  0.14124161533483456  0.3286516416445266  0.41255618959878865  1.0000
  H   H46       1.0  0.918285634311985  0.3390839175002824  0.40946507758530964  1.0000
  H   H47       1.0  0.8274806296494789  0.44237419741477874  0.4072543107719326  1.0000
  H   H48       1.0  0.9756935725146076  0.44160681324026996  0.37833370358358553  1.0000
  H   H49       1.0  0.8903519977474588  0.7402761602433614  0.6699887017144447  1.0000
  H   H50       1.0  0.7790547532274487  0.6477988191025544  0.6621934946688769  1.0000
  H   H51       1.0  0.901352456598573  0.6330944788751794  0.7036914590550651  1.0000
  H   H52       1.0  0.13437077374433665  0.6393384966081472  0.7025650400423089  1.0000
  H   H53       1.0  0.24442087546884753  0.6852167529915861  0.6578757836881834  1.0000
  H   H54       1.0  0.10893202785954506  0.7491802783498541  0.6729559274356021  1.0000
  H   H55       1.0  0.06676791750911089  0.5635990962428823  0.2022492159975968  1.0000
  H   H56       1.0  0.2006736091992352  0.5808678606615914  0.1635202535336049  1.0000
  H   H57       1.0  0.089502633171314  0.6709717693223567  0.1687584610072932  1.0000
  H   H58       1.0  0.865210112890054  0.673685949338136  0.17214436654575144  1.0000
  H   H59       1.0  0.7409987467556857  0.5921444823492266  0.1664191021397201  1.0000
  H   H60       1.0  0.8647167626021924  0.5641420686657455  0.20456174299059174  1.0000
  H   H61       1.0  0.8506216408807247  0.2309924893900686  0.9270024962747812  1.0000
  H   H62       1.0  0.7266555097768758  0.30978024145574784  0.9381724858487601  1.0000
  H   H63       1.0  0.8408182964376251  0.33501622570750555  0.8905718121578232  1.0000
  H   H64       1.0  0.065800932768056  0.3376624216258222  0.8840210032553841  1.0000
  H   H65       1.0  0.194176163430363  0.325261992407789  0.9225899263375297  1.0000
  H   H66       1.0  0.07725914358052677  0.2354801668693796  0.9216952697798249  1.0000
  C   C1        1.0  0.5322661912190795  0.496913717019794  0.6011453753651779  1.0000
  C   C2        1.0  0.29852198354080167  0.4909690971664417  0.5061544569818608  1.0000
  C   C3        1.0  0.5159682156440796  0.49708077610276297  0.4026032603619356  1.0000
  C   C4        1.0  0.7718656684713279  0.49869725599594966  0.496271215750042  1.0000
  C   C5        1.0  0.4822697030050094  0.5118695989745632  0.9813688234530956  1.0000
  C   C6        1.0  0.23575180184488428  0.5052204743530025  0.080448293688427  1.0000
  C   C7        1.0  0.46719935843812976  0.5128367159800788  0.18572312808891667  1.0000
  C   C8        1.0  0.7051920427766517  0.510345806310724  0.0866231481895952  1.0000
  C   C9        1.0  0.6428977278787044  0.1981931014551677  0.48426237930972593  1.0000
  C   C10       1.0  0.6402722366597685  0.0976439092723069  0.4824655158905742  1.0000
  C   C11       1.0  0.49515099434862714  0.7951222076668641  0.5441137276624062  1.0000
  C   C12       1.0  0.4909570104846281  0.8954273168983776  0.5428357900455794  1.0000
  C   C13       1.0  0.5756744636835122  0.7900471959665367  0.4614761586189147  1.0000
  C   C14       1.0  0.5783822702587073  0.8884235636933652  0.4582142642739981  1.0000
  C   C15       1.0  0.4407722561553911  0.19950051636604368  0.5153744685588748  1.0000
  C   C16       1.0  0.43327812162119267  0.10099951439292451  0.5161606752925465  1.0000
  C   C17       1.0  0.5357211339416067  0.048347438860837096  0.49905849683226927  1.0000
  C   C18       1.0  0.5340186025116009  0.9428114889318876  0.49991950406212743  1.0000
  C   C19       1.0  0.4808937171505788  0.5126113894865014  0.241741866905393  1.0000
  C   C20       1.0  0.5606448023431624  0.4433418575492567  0.261443087576545  1.0000
  C   C21       1.0  0.41389324509287917  0.5740735768908891  0.2734364635240709  1.0000
  C   C22       1.0  0.6370725578387989  0.38463783937459073  0.23013214623053807  1.0000
  C   C23       1.0  0.71314794716816  0.3173726911180025  0.2494595765955552  1.0000
  C   C24       1.0  0.4988308619237498  0.49910270596394923  0.3467261333097156  1.0000
  C   C25       1.0  0.422159280192801  0.5664122032890262  0.3269871045094064  1.0000
  C   C26       1.0  0.5677405119674644  0.43506346693620657  0.3149222860999501  1.0000
  C   C27       1.0  0.6443750729016386  0.36408793214347673  0.3340133673217309  1.0000
  C   C28       1.0  0.7143535874995023  0.30498914381779224  0.3029024072295528  1.0000
  C   C29       1.0  0.5173721389548048  0.49543770206479815  0.6564528353551465  1.0000
  C   C30       1.0  0.4792626807045862  0.5068110397187624  0.9258397130944117  1.0000
  C   C31       1.0  0.5541085786784946  0.41528270015358965  0.6842424865852621  1.0000
  C   C32       1.0  0.5416504328618713  0.41698139564179126  0.7371133240669678  1.0000
  C   C33       1.0  0.4846225470406507  0.5919570941484835  0.8971117965827061  1.0000
  C   C34       1.0  0.48797912018551404  0.586054207032923  0.8443067464860903  1.0000
  C   C35       1.0  0.47220840938531694  0.4187044479814191  0.8997273990243498  1.0000
  C   C36       1.0  0.47295177019366  0.4136941749209768  0.8475008817440113  1.0000
  C   C37       1.0  0.4648867518427622  0.5729566787845215  0.6831372057496097  1.0000
  C   C38       1.0  0.44997801596225173  0.5730454673112177  0.7351080053442658  1.0000
  C   C39       1.0  0.49070141112889587  0.49515102988640797  0.7630867196830097  1.0000
  C   C40       1.0  0.4828936184389646  0.49807553024487566  0.8188793785490489  1.0000
  C   C41       1.0  0.9074153200473275  0.49512732777679963  0.4987829838784918  1.0000
  C   C42       1.0  0.9633624634387631  0.5362181423656195  0.542232368334453  1.0000
  C   C43       1.0  0.9765795037028367  0.4536185643971251  0.45941098512950157  1.0000
  C   C44       1.0  0.8965002750546983  0.5765399177345927  0.5839255751842884  1.0000
  C   C45       1.0  0.9527161720139146  0.6200603778562691  0.6242582447240891  1.0000
  C   C46       1.0  0.16174416178483136  0.49000102419964975  0.5043352462747706  1.0000
  C   C47       1.0  0.10618113661965368  0.44815466462608805  0.4630710441983084  1.0000
  C   C48       1.0  0.09362759133083638  0.5363405425015059  0.5440904538946185  1.0000
  C   C49       1.0  0.15008281450621294  0.5824843215681386  0.5854468612690411  1.0000
  C   C50       1.0  0.08323962101799508  0.6254814733949912  0.6244527280341927  1.0000
  C   C51       1.0  0.5216451573606874  0.8091316396904987  0.1289051393965082  1.0000
  C   C52       1.0  0.528213370370416  0.9096466783532191  0.1281882332279238  1.0000
  C   C53       1.0  0.4950669740760105  0.21147394681895557  0.040387800924563094  1.0000
  C   C54       1.0  0.4978819052666734  0.11110676720782918  0.041178164762968095  1.0000
  C   C55       1.0  0.46651258467834816  0.21744653290077304  0.1279266162549106  1.0000
  C   C56       1.0  0.46919079961905635  0.1192346053812159  0.1315097831393075  1.0000
  C   C57       1.0  0.42534290521587076  0.8065342373761553  0.051900111159717696  1.0000
  C   C58       1.0  0.42784397830813237  0.904819270583495  0.0489383863324022  1.0000
  C   C59       1.0  0.48126921015304447  0.9584997157813432  0.0880936807325483  1.0000
  C   C60       1.0  0.4837899344380999  0.0639439011175966  0.0868589283672918  1.0000
  C   C61       1.0  0.8422191556331028  0.5068189568471198  0.08599459455443538  1.0000
  C   C62       1.0  0.9031743196915158  0.45815490054062735  0.04503387028265139  1.0000
  C   C63       1.0  0.9059532383255943  0.5505772076954756  0.1244928168474786  1.0000
  C   C64       1.0  0.8386668430806878  0.40918996373801514  0.006738922114706698  1.0000
  C   C65       1.0  0.8975173846483173  0.361245942456776  0.9672486313048552  1.0000
  C   C66       1.0  0.09854329920654689  0.5058577333848433  0.0818930388662693  1.0000
  C   C67       1.0  0.036565095431050985  0.5494783892931209  0.1225929171202225  1.0000
  C   C68       1.0  0.033944132937065795  0.4583953905462579  0.0425047397580229  1.0000
  C   C69       1.0  0.09253028827178868  0.41160352103076997  0.0006010631941250998  1.0000
  C   C70       1.0  0.028199731249159782  0.3635908850222335  0.9638239288981367  1.0000
  C   C71       1.0  0.3434262756455979  0.6299126966093522  0.3605828467582981  1.0000
  C   C72       1.0  0.33088560788542043  0.6485883915855553  0.2536137261413671  1.0000
  C   C73       1.0  0.7937685957108299  0.2584897252584923  0.21446779743043007  1.0000
  C   C74       1.0  0.7909084410712308  0.22898184952926928  0.325159271997201  1.0000
  C   C75       1.0  0.17955951235938267  0.3999101028333385  0.4211693773043308  1.0000
  C   C76       1.0  0.9207833138964217  0.41771677624019793  0.4114291170271541  1.0000
  C   C77       1.0  0.8767593906649083  0.6622764056931488  0.6671322638670389  1.0000
  C   C78       1.0  0.14619473791352527  0.6772791287914756  0.6665333877428807  1.0000
  C   C79       1.0  0.10251616625844659  0.5931459127980219  0.16633116026645206  1.0000
  C   C80       1.0  0.840420324659668  0.5973756569032743  0.16895441984156886  1.0000
  C   C81       1.0  0.8249646485809162  0.3067740892093553  0.9288564252008482  1.0000
  C   C82       1.0  0.09511208484398992  0.3131634020033688  0.9209158239914286  1.0000
  N   N1        1.0  0.5432720076631269  0.24806836255183373  0.4999506395709972  1.0000
  N   N2        1.0  0.5351147646401201  0.7435980619463649  0.5034857315935994  1.0000
  N   N3        1.0  0.4724434023808043  0.7584976329516381  0.0905604178893569  1.0000
  N   N4        1.0  0.47821552263274464  0.2634343819693825  0.0833258047542529  1.0000
  O   O1        1.0  0.5692080760956271  0.4209680668321525  0.5778348355280158  1.0000
  O   O2        1.0  0.5082181179122428  0.57325021512289  0.5773030737615129  1.0000
  O   O3        1.0  0.35233340371890154  0.5688843839115805  0.494087404433408  1.0000
  O   O4        1.0  0.3506381233628275  0.414563156026027  0.5190626421355802  1.0000
  O   O5        1.0  0.5550225709765755  0.5744331034204748  0.4227991111749887  1.0000
  O   O6        1.0  0.4925338569515532  0.41950196130845535  0.4258714621557901  1.0000
  O   O7        1.0  0.7132902526317436  0.42053180236432297  0.4855649763675487  1.0000
  O   O8        1.0  0.7188858254495827  0.5768651100763121  0.5054439370504227  1.0000
  O   O9        1.0  0.47365068302055124  0.5947296905373847  0.002752243637701201  1.0000
  O   O10       1.0  0.49429689751617184  0.43569128983362054  0.006950549627319398  1.0000
  O   O11       1.0  0.28681473191116413  0.4241615951934323  0.0767293680221286  1.0000
  O   O12       1.0  0.29241657559568063  0.585508476991869  0.08359704127234828  1.0000
  O   O13       1.0  0.43361845896917117  0.43562926839960164  0.16461687244549242  1.0000
  O   O14       1.0  0.49084231488325963  0.5902236083010307  0.16131329194304558  1.0000
  O   O15       1.0  0.657413633453693  0.5895363537077782  0.0762299387262004  1.0000
  O   O16       1.0  0.6464794578122905  0.43323145769127097  0.0971246780490631  1.0000
  O   O17       1.0  0.7464490512656424  0.2426677552612517  0.4703049640066368  1.0000
  O   O18       1.0  0.4595273777187359  0.752085003254841  0.5866804972548607  1.0000
  O   O19       1.0  0.6031161777026383  0.3372970360211056  0.661603473108009  1.0000
  O   O20       1.0  0.48910598055994103  0.6796666940423466  0.91872501512173  1.0000
  O   O21       1.0  0.5648406218647891  0.765440691470033  0.1686090063626082  1.0000
  O   O22       1.0  0.5091048471329885  0.2538305778505503  0.9959204779668837  1.0000
