data_image0
_chemical_formula_structural       Tl4H20C28N16
_chemical_formula_sum              "Tl4 H20 C28 N16"
_cell_length_a       4.117206537615325
_cell_length_b       12.848879242674318
_cell_length_c       16.30013732777748
_cell_angle_alpha    102.21889964725919
_cell_angle_beta     97.23968962441126
_cell_angle_gamma    89.99182644393406

_space_group_name_H-M_alt    "P 1"
_space_group_IT_number       1

loop_
  _space_group_symop_operation_xyz
  'x, y, z'

loop_
  _atom_site_type_symbol
  _atom_site_label
  _atom_site_symmetry_multiplicity
  _atom_site_fract_x
  _atom_site_fract_y
  _atom_site_fract_z
  _atom_site_occupancy
  Tl  Tl1       1.0  0.4763762478219603  0.09941061472121503  0.9152985253231167  1.0000
  Tl  Tl2       1.0  0.5616036115186914  0.40059976152988236  0.08462172690248342  1.0000
  Tl  Tl3       1.0  0.523635973355411  0.9005906223332829  0.08470212840644115  1.0000
  Tl  Tl4       1.0  0.438398646759481  0.599399841252513  0.9153771591213984  1.0000
  H   H1        1.0  0.42436402046732263  0.2130638700254934  0.6810241474843866  1.0000
  H   H2        1.0  0.7447437535098584  0.2867868576048807  0.31895490533580784  1.0000
  H   H3        1.0  0.5756262610920401  0.7869374174067758  0.31897832079240374  1.0000
  H   H4        1.0  0.25526109847932327  0.7132143568407161  0.6810449137890233  1.0000
  H   H5        1.0  0.13467769765507848  0.2471084685665019  0.5455491907070427  1.0000
  H   H6        1.0  0.590006446952195  0.25291128234409405  0.4544317705230584  1.0000
  H   H7        1.0  0.8653170447643105  0.7528879934137864  0.4544508410934825  1.0000
  H   H8        1.0  0.40999844170462996  0.7470907116497968  0.5455675535064304  1.0000
  H   H9        1.0  0.18139965899406008  0.4257307286087696  0.5113797371553306  1.0000
  H   H10       1.0  0.6702443204527454  0.0742275603764853  0.488649349030844  1.0000
  H   H11       1.0  0.8186021746640079  0.5742632991310188  0.4886182961745363  1.0000
  H   H12       1.0  0.32974596246481264  0.925775235493319  0.5113502783289406  1.0000
  H   H13       1.0  0.5207519588869475  0.5700289974941981  0.6124778321037071  1.0000
  H   H14       1.0  0.9087313323416025  0.9298780126428028  0.3875655838473976  1.0000
  H   H15       1.0  0.47925226386790587  0.42996574415597894  0.3875173110610462  1.0000
  H   H16       1.0  0.0912638346978838  0.0701240243800854  0.6124353006471424  1.0000
  H   H17       1.0  0.8091792513270517  0.5365706418050422  0.7459862684807989  1.0000
  H   H18       1.0  0.0640404677470912  0.9631775334474922  0.25406109590915804  1.0000
  H   H19       1.0  0.19081549245052537  0.46342732861276664  0.25401092240272055  1.0000
  H   H20       1.0  0.935974334466003  0.03682455260825891  0.7459416029254771  1.0000
  C   C1        1.0  0.7992513361192478  0.349347479804969  0.8010702281215105  1.0000
  C   C2        1.0  0.9992402080419607  0.15052011864914047  0.19890404765057215  1.0000
  C   C3        1.0  0.2007314676071701  0.6506529548110224  0.19893004991956798  1.0000
  C   C4        1.0  0.0007721217801588388  0.8494819486127342  0.8010979617099709  1.0000
  C   C5        1.0  0.6320906241270733  0.3719981551154989  0.7225186607683298  1.0000
  C   C6        1.0  0.910734252066966  0.1278170648030823  0.2774722217569874  1.0000
  C   C7        1.0  0.36789950080280676  0.6280022683366796  0.2774812180599398  1.0000
  C   C8        1.0  0.08927796911040532  0.8721841722514158  0.7225284319725704  1.0000
  C   C9        1.0  0.4436178192727667  0.290804028777636  0.6649773276621149  1.0000
  C   C10       1.0  0.7798646424298068  0.20905779237085656  0.3350363768096544  1.0000
  C   C11       1.0  0.5563747047127946  0.7091948543718232  0.335024230830932  1.0000
  C   C12       1.0  0.22014267063326542  0.7909441866441966  0.664962402876377  1.0000
  C   C13       1.0  0.28236024367356544  0.3102406109989745  0.5896325207359043  1.0000
  C   C14       1.0  0.6936683603883577  0.18971529182086752  0.41039782237074723  1.0000
  C   C15       1.0  0.7176346553753062  0.6897567149613977  0.41037010051314843  1.0000
  C   C16       1.0  0.30633407986986316  0.8102867002655005  0.5896014290934206  1.0000
  C   C17       1.0  0.307923734410437  0.41080137440592784  0.5705467302204144  1.0000
  C   C18       1.0  0.7378826588250574  0.0891511968211631  0.42950196434823346  1.0000
  C   C19       1.0  0.6920757721690547  0.5891942442956619  0.4294514741709962  1.0000
  C   C20       1.0  0.2621099878387271  0.910850787635141  0.5704969968546649  1.0000
  C   C21       1.0  0.49611280196403845  0.4917557042544232  0.627353187234782  1.0000
  C   C22       1.0  0.8692945239909445  0.008161275614355605  0.37269854485735016  1.0000
  C   C23       1.0  0.5038868626031245  0.5082422868647853  0.3726447656881504  1.0000
  C   C24       1.0  0.1307030914471525  0.9918407633160556  0.6273024122025036  1.0000
  C   C25       1.0  0.6573902733596951  0.4730559309222643  0.7032201542936535  1.0000
  C   C26       1.0  0.9549196339547023  0.026763251026842707  0.29679442326055044  1.0000
  C   C27       1.0  0.3425996582730518  0.5269428490015287  0.2967776301814312  1.0000
  C   C28       1.0  0.04508291494826014  0.9732395712669019  0.7032061838346026  1.0000
  N   N1        1.0  0.866423548996053  0.25064406146003654  0.8139453663715416  1.0000
  N   N2        1.0  0.0534813032758237  0.24926655017836907  0.1861027690381151  1.0000
  N   N3        1.0  0.133561679136605  0.7493563581771098  0.18605436732608646  1.0000
  N   N4        1.0  0.9465334269601725  0.750735485218307  0.8138980790701995  1.0000
  N   N5        1.0  0.01846678231201792  0.26642083508067327  0.8936805382811387  1.0000
  N   N6        1.0  0.12532112914757929  0.23359588691122465  0.10631743373884461  1.0000
  N   N7        1.0  0.9815353673214062  0.7335779374943528  0.10631699211176485  1.0000
  N   N8        1.0  0.874688582971167  0.7664045518011022  0.8936830256119707  1.0000
  N   N9        1.0  0.04241725951427363  0.3697852932763935  0.9284276533038497  1.0000
  N   N10       1.0  0.11438398978314977  0.1302506924511633  0.07147811636546211  1.0000
  N   N11       1.0  0.9575873865024959  0.6302135149788698  0.07157118347192447  1.0000
  N   N12       1.0  0.8856282187189418  0.869749781941394  0.9285236493682164  1.0000
  N   N13       1.0  0.906172518097101  0.4241377125419277  0.8711916472896849  1.0000
  N   N14       1.0  0.03570285209233501  0.07581380627251381  0.12869629783499195  1.0000
  N   N15       1.0  0.0938174855127443  0.5758611180409404  0.12880798791172773  1.0000
  N   N16       1.0  0.9643142532069715  0.9241866719350826  0.8713056130293283  1.0000
