data_image0
_chemical_formula_structural       Al4H32C68Br8O28
_chemical_formula_sum              "Al4 H32 C68 Br8 O28"
_cell_length_a       6.650074615609203
_cell_length_b       23.241532731409503
_cell_length_c       26.366340299359052
_cell_angle_alpha    101.92010863712295
_cell_angle_beta     89.9961423565419
_cell_angle_gamma    90.0018846380345

_space_group_name_H-M_alt    "P 1"
_space_group_IT_number       1

loop_
  _space_group_symop_operation_xyz
  'x, y, z'

loop_
  _atom_site_type_symbol
  _atom_site_label
  _atom_site_symmetry_multiplicity
  _atom_site_fract_x
  _atom_site_fract_y
  _atom_site_fract_z
  _atom_site_occupancy
  Al  Al1       1.0  0.18297831542581378  0.2489526818570837  0.7522003738644045  1.0000
  Al  Al2       1.0  0.8169852488867593  0.7510469904099748  0.24780315167830477  1.0000
  Al  Al3       1.0  0.6829793853308744  0.2510456116185793  0.7477964447626845  1.0000
  Al  Al4       1.0  0.3169826756200608  0.7489576320661371  0.2522056179628294  1.0000
  H   H1        1.0  0.7261859841455093  0.6038831435804326  0.43795125275738656  1.0000
  H   H2        1.0  0.2738572776657763  0.3960531277465549  0.562030794172081  1.0000
  H   H3        1.0  0.22618096684543332  0.8961378699241606  0.06209300444650271  1.0000
  H   H4        1.0  0.773845755519048  0.10389815552926511  0.9379198209166404  1.0000
  H   H5        1.0  0.3426837661223844  0.5544736519933834  0.40180203324349856  1.0000
  H   H6        1.0  0.6573835596696754  0.4455011202882205  0.5981642904798932  1.0000
  H   H7        1.0  0.8426775675687921  0.9455567244546543  0.0982114997529493  1.0000
  H   H8        1.0  0.157353663698018  0.05445984221574208  0.901811303836915  1.0000
  H   H9        1.0  0.3492380410821596  0.6224342388716053  0.33987974105558993  1.0000
  H   H10       1.0  0.6507601118383378  0.37755606665826497  0.6600992742316124  1.0000
  H   H11       1.0  0.8492434458229001  0.8776077211113176  0.1601416528934791  1.0000
  H   H12       1.0  0.15074718432317272  0.12240565855182689  0.8398803081985732  1.0000
  H   H13       1.0  0.08460064850488891  0.3942262483143963  0.4775075008291124  1.0000
  H   H14       1.0  0.9155358473317464  0.6057367363520996  0.5224705153265462  1.0000
  H   H15       1.0  0.5845017961900254  0.10577207859944343  0.022464422435355402  1.0000
  H   H16       1.0  0.4155895861867763  0.8942457061847547  0.9775476079059543  1.0000
  H   H17       1.0  0.80926838615126  0.5427185245357078  0.9370670632687136  1.0000
  H   H18       1.0  0.19069818743458464  0.45729589800322396  0.06292869276239799  1.0000
  H   H19       1.0  0.30927146544036793  0.957280384656336  0.5629355157754786  1.0000
  H   H20       1.0  0.6907026249555912  0.042717125639718724  0.43706796122963  1.0000
  H   H21       1.0  0.5957103471471399  0.6702209936132206  0.398421961592625  1.0000
  H   H22       1.0  0.40425471942997865  0.3297116738934421  0.6015634766901813  1.0000
  H   H23       1.0  0.09566554441567382  0.8298349377266732  0.1016596530743215  1.0000
  H   H24       1.0  0.9043175697909618  0.17021273023264172  0.8983553621340975  1.0000
  H   H25       1.0  0.33981919851646586  0.5934964123124544  0.9864962786118882  1.0000
  H   H26       1.0  0.6601548935382978  0.4065170332272318  0.013500998322243203  1.0000
  H   H27       1.0  0.8398387663637621  0.9065204483082637  0.5134980766389178  1.0000
  H   H28       1.0  0.16013532416549484  0.09347776669824275  0.4865046447273329  1.0000
  H   H29       1.0  0.42248214566954095  0.32013980881794174  0.7377161414942891  1.0000
  H   H30       1.0  0.5774739011563385  0.6798576221682069  0.26227653386168015  1.0000
  H   H31       1.0  0.9224536370248588  0.17987727269813558  0.762310918543328  1.0000
  H   H32       1.0  0.0775039121273622  0.8201260667130653  0.23769577494921626  1.0000
  C   C1        1.0  0.4295269816321294  0.17199561404984115  0.6730649331799015  1.0000
  C   C2        1.0  0.5704335751686429  0.8280017361176419  0.3269377689229032  1.0000
  C   C3        1.0  0.9295003749014229  0.32800442197910235  0.8269334663906917  1.0000
  C   C4        1.0  0.0704707089006789  0.6719990461719191  0.17306551556511351  1.0000
  C   C5        1.0  0.4403914744718095  0.18791376508933413  0.8134354120297046  1.0000
  C   C6        1.0  0.5595750970581294  0.812105364409085  0.1865789638107174  1.0000
  C   C7        1.0  0.9404341342763941  0.3120706874619685  0.6865516506910795  1.0000
  C   C8        1.0  0.05953093385075902  0.6879212659562484  0.3134478447165918  1.0000
  C   C9        1.0  0.8674433826375038  0.6457037538962567  0.3814676815217908  1.0000
  C   C10       1.0  0.13254724861272393  0.3542587649920321  0.618522668340063  1.0000
  C   C11       1.0  0.36743167670783083  0.8543380030687188  0.11858733758230498  1.0000
  C   C12       1.0  0.6325619624526837  0.14569249682698168  0.8814299928279893  1.0000
  C   C13       1.0  0.8648654992970889  0.6080058934606569  0.41669503377891454  1.0000
  C   C14       1.0  0.1351582150307422  0.39194341416740025  0.583283448293045  1.0000
  C   C15       1.0  0.3648622504299155  0.8920158956325108  0.0833426107021396  1.0000
  C   C16       1.0  0.6351494336978902  0.10801023244292203  0.9166723072944123  1.0000
  C   C17       1.0  0.0327652750472183  0.5745484629600525  0.42417320672861797  1.0000
  C   C18       1.0  0.9672975373101876  0.4254109022046109  0.575803957522311  1.0000
  C   C19       1.0  0.5327624100019933  0.9254681980480015  0.07584612524000528  1.0000
  C   C20       1.0  0.4672658150003032  0.07455419856270852  0.9241694804273449  1.0000
  C   C21       1.0  0.21005726776161993  0.5800814847816156  0.39647287006303594  1.0000
  C   C22       1.0  0.7899905081876428  0.4198916692771064  0.6035022890172429  1.0000
  C   C23       1.0  0.7100544099524342  0.919944515643742  0.10354207643658948  1.0000
  C   C24       1.0  0.2899677997178359  0.08007285223727222  0.8964741880256496  1.0000
  C   C25       1.0  0.21381549685917633  0.6179231171990126  0.3620498599822141  1.0000
  C   C26       1.0  0.7861961888966748  0.38206115046093464  0.6379332627554106  1.0000
  C   C27       1.0  0.7138209079420363  0.8821138261325671  0.1379741384197786  1.0000
  C   C28       1.0  0.28617724155098767  0.11790882622165103  0.862046873250911  1.0000
  C   C29       1.0  0.04505341180718861  0.6508168161507654  0.3531505510626261  1.0000
  C   C30       1.0  0.9549342126058777  0.34916158931634556  0.6468416976840315  1.0000
  C   C31       1.0  0.5450770036711603  0.8492175461424907  0.14688516585508887  1.0000
  C   C32       1.0  0.4549151313868549  0.15080886988178588  0.8531332301996032  1.0000
  C   C33       1.0  0.0688703445557337  0.4752237904037599  0.45054138638019475  1.0000
  C   C34       1.0  0.9312766774158378  0.5247407316283272  0.5494378212810318  1.0000
  C   C35       1.0  0.5688174132741893  0.024783237713705795  0.04944835943883421  1.0000
  C   C36       1.0  0.43123036063980896  0.9752367889920988  0.9505641072316634  1.0000
  C   C37       1.0  0.04966852530465361  0.44099273444126647  0.48781911619512636  1.0000
  C   C38       1.0  0.9504679701359892  0.5589700257846529  0.5121619806531753  1.0000
  C   C39       1.0  0.5495895883923155  0.05900292594045449  0.012166462782303699  1.0000
  C   C40       1.0  0.4504657041239  0.9410168284765561  0.9878467691523481  1.0000
  C   C41       1.0  0.980439589875047  0.46456686866950037  0.538192296826999  1.0000
  C   C42       1.0  0.0196878832398326  0.5353947065503419  0.4617872306834556  1.0000
  C   C43       1.0  0.48037309101341913  0.03541199860905664  0.9617951094347391  1.0000
  C   C44       1.0  0.5196716752841724  0.9646082682231099  0.03821851978834451  1.0000
  C   C45       1.0  0.894440331025173  0.5242158813454552  0.965288753212242  1.0000
  C   C46       1.0  0.105530753896744  0.4757978686712006  0.03470583056390811  1.0000
  C   C47       1.0  0.39444347449691014  0.9757858680873497  0.5347112661877204  1.0000
  C   C48       1.0  0.6055321197082294  0.024211994568219097  0.46529183298510896  1.0000
  C   C49       1.0  0.10993646338095432  0.543627859083351  0.9851450947429541  1.0000
  C   C50       1.0  0.8900301104257411  0.45638710807607913  0.014849130631375804  1.0000
  C   C51       1.0  0.6099462083135451  0.9563806435259251  0.514850330479007  1.0000
  C   C52       1.0  0.3900263783418366  0.04361781161122742  0.48515355342697575  1.0000
  C   C53       1.0  0.07554763773218548  0.6268174280441982  0.1263418945006123  1.0000
  C   C54       1.0  0.9244309646682539  0.373183878127243  0.8736570389432784  1.0000
  C   C55       1.0  0.5755159313758611  0.8731876593612001  0.37365908472737175  1.0000
  C   C56       1.0  0.4244491370620694  0.1268165291774963  0.6263433848604834  1.0000
  C   C57       1.0  0.82618107497634  0.5232790636863528  0.0216256137078616  1.0000
  C   C58       1.0  0.17379000999130062  0.476735551130716  0.978368989447354  1.0000
  C   C59       1.0  0.3261881473350315  0.9767237859466602  0.47837832924369644  1.0000
  C   C60       1.0  0.6737844392765596  0.023274749235476136  0.5216259421712551  1.0000
  C   C61       1.0  0.0421837075558145  0.5427338509090021  0.0435977869407225  1.0000
  C   C62       1.0  0.9577888811942615  0.4572787941765882  0.956395614916623  1.0000
  C   C63       1.0  0.5421963998478462  0.9572758670079577  0.45640001284080967  1.0000
  C   C64       1.0  0.4577837055449765  0.04272396539624879  0.5436042875785175  1.0000
  C   C65       1.0  0.07418327608476011  0.5870405753035683  0.0881499639352228  1.0000
  C   C66       1.0  0.925798334054157  0.4129664321241293  0.9118494829558939  1.0000
  C   C67       1.0  0.5741900980182209  0.9129671310035193  0.41184916855712567  1.0000
  C   C68       1.0  0.42578850376536076  0.0870334061068618  0.5881543762361829  1.0000
  Br  Br1       1.0  0.15071776822284016  0.43602750203341145  0.38291624657517076  1.0000
  Br  Br2       1.0  0.8494006828406243  0.5639380769828435  0.6170618278718578  1.0000
  Br  Br3       1.0  0.6506824410977077  0.0640050409627904  0.11706417619646461  1.0000
  Br  Br4       1.0  0.34937285243371  0.9360275575457918  0.8829466435510298  1.0000
  Br  Br5       1.0  0.4101926185231548  0.44070525354666773  0.9441573920403457  1.0000
  Br  Br6       1.0  0.5897950084635967  0.5593172889169225  0.05583391718359111  1.0000
  Br  Br7       1.0  0.9101584831463897  0.0593210014722843  0.5558291993459646  1.0000
  Br  Br8       1.0  0.0898231260517264  0.9406772936006503  0.44417390946502183  1.0000
  O   O1        1.0  0.6035582282686606  0.20207459680008813  0.7942950847607477  1.0000
  O   O2        1.0  0.39640383231731846  0.7979435399703974  0.2057165688659381  1.0000
  O   O3        1.0  0.10360576699959982  0.2979057090826984  0.705680711749764  1.0000
  O   O4        1.0  0.8963547894261056  0.702090904199025  0.29432467384717853  1.0000
  O   O5        1.0  0.2608082915409682  0.18737142095549336  0.6942873900722262  1.0000
  O   O6        1.0  0.7391477538989265  0.8126252244886698  0.3057160677079763  1.0000
  O   O7        1.0  0.7607747282392481  0.31261767421148784  0.8057260115878079  1.0000
  O   O8        1.0  0.23919635632658043  0.6873938816288288  0.1942704515959477  1.0000
  O   O9        1.0  0.2646334267926705  0.201574356477586  0.8003737646053181  1.0000
  O   O10       1.0  0.7353271299151346  0.7984312249882137  0.19963336481817612  1.0000
  O   O11       1.0  0.7646728160436781  0.29842542711914183  0.6996328672205933  1.0000
  O   O12       1.0  0.23528774138323175  0.7015665105918388  0.30036238500608897  1.0000
  O   O13       1.0  0.10308345767010961  0.3090437379903365  0.8114002851735124  1.0000
  O   O14       1.0  0.8968816103144662  0.6909536922349986  0.1886028043997072  1.0000
  O   O15       1.0  0.6031091205596938  0.19096764927979856  0.688584316212456  1.0000
  O   O16       1.0  0.39684542089977276  0.8090308536755515  0.3114218832119349  1.0000
  O   O17       1.0  0.4314181191900631  0.2853315003419041  0.7524834655405214  1.0000
  O   O18       1.0  0.568542438301968  0.714670750623455  0.247515874945563  1.0000
  O   O19       1.0  0.9314152092421538  0.21466745730412376  0.7475179628290719  1.0000
  O   O20       1.0  0.0685438439114208  0.7853335121506929  0.25248559182077907  1.0000
  O   O21       1.0  0.7011516121354118  0.6775159708739054  0.3747712366093907  1.0000
  O   O22       1.0  0.29881345448050217  0.3224355935406749  0.6252223394340817  1.0000
  O   O23       1.0  0.20109409407147186  0.82255462251738  0.12531622025592526  1.0000
  O   O24       1.0  0.7988724783198721  0.17748806455189486  0.8747017692015504  1.0000
  O   O25       1.0  0.20929323286484447  0.5879192927426191  0.9687946102282298  1.0000
  O   O26       1.0  0.790682363151369  0.4120937525764532  0.0312007291482388  1.0000
  O   O27       1.0  0.709299991640414  0.9120886718328692  0.5311979354963512  1.0000
  O   O28       1.0  0.2906771062863314  0.08790970327217448  0.46880556086212977  1.0000
