data_image0
_chemical_formula_structural       Mn6H80C96N4O40
_chemical_formula_sum              "Mn6 H80 C96 N4 O40"
_cell_length_a       9.177238947577806
_cell_length_b       17.25437663147974
_cell_length_c       17.254404294431254
_cell_angle_alpha    75.25842305829664
_cell_angle_beta     78.7499675112988
_cell_angle_gamma    78.7485133069053

_space_group_name_H-M_alt    "P 1"
_space_group_IT_number       1

loop_
  _space_group_symop_operation_xyz
  'x, y, z'

loop_
  _atom_site_type_symbol
  _atom_site_label
  _atom_site_symmetry_multiplicity
  _atom_site_fract_x
  _atom_site_fract_y
  _atom_site_fract_z
  _atom_site_occupancy
  Mn  Mn1       1.0  0.4456741203797706  0.18624072370590739  0.31067350518885206  1.0000
  Mn  Mn2       1.0  0.05435850712871833  0.6893423042850131  0.8137206560564393  1.0000
  Mn  Mn3       1.0  0.5543221755146491  0.813681374502792  0.6893533518529226  1.0000
  Mn  Mn4       1.0  0.9456631293701959  0.3106995987636835  0.1862369968669881  1.0000
  Mn  Mn5       1.0  0.5001401938916955  0.9998024149622965  0.5000605287171069  1.0000
  Mn  Mn6       1.0  7.958313346990187e-05  0.5000077220135993  0.9999027058194726  1.0000
  H   H1        1.0  0.4172929138611963  0.8337548030366052  0.38818502091317003  1.0000
  H   H2        1.0  0.08269557274974207  0.6118120744756013  0.16624048683955553  1.0000
  H   H3        1.0  0.5826890001365754  0.16623423835694237  0.6118125896145159  1.0000
  H   H4        1.0  0.9173044235139186  0.3881940982861635  0.8337520789650198  1.0000
  H   H5        1.0  0.4314441631160976  0.7833846761908774  0.15399501897584864  1.0000
  H   H6        1.0  0.06849829666367678  0.8460055379683241  0.2166152602115972  1.0000
  H   H7        1.0  0.5684868904972903  0.21660341237556927  0.8460067602456789  1.0000
  H   H8        1.0  0.9314373866653299  0.15401109923654127  0.7833825038781583  1.0000
  H   H9        1.0  0.41011345177839337  0.02938440331695351  0.17505179520101416  1.0000
  H   H10       1.0  0.08990491193942787  0.8249481368371362  0.9706143652732775  1.0000
  H   H11       1.0  0.589893819780791  0.9706012392671256  0.8249391791820385  1.0000
  H   H12       1.0  0.9101113772438651  0.1750598819390348  0.02938288758937099  1.0000
  H   H13       1.0  0.6936592191650777  0.8479334684826154  0.07516209948836668  1.0000
  H   H14       1.0  0.8063209740273224  0.9248535349327794  0.15207283755719206  1.0000
  H   H15       1.0  0.3063141057692533  0.15206373266943976  0.9248553436404308  1.0000
  H   H16       1.0  0.19364721971695087  0.07516682552933669  0.8479319827320353  1.0000
  H   H17       1.0  0.8135781846612814  0.7655750057187944  0.9730563261166906  1.0000
  H   H18       1.0  0.6864265260980178  0.026970800853405304  0.23442504761122504  1.0000
  H   H19       1.0  0.18643505933820143  0.2344302900057897  0.026961640925904418  1.0000
  H   H20       1.0  0.3135684281739445  0.9730533285390448  0.7655810828465306  1.0000
  H   H21       1.0  0.4213892856880435  0.8399941282726501  0.8552085654370316  1.0000
  H   H22       1.0  0.07860984217163748  0.14480432050335426  0.15999160127866213  1.0000
  H   H23       1.0  0.5786451537771952  0.1599909447923125  0.1447911103018313  1.0000
  H   H24       1.0  0.9213914192503198  0.8552054362452565  0.8400051645980823  1.0000
  H   H25       1.0  0.30028040964896974  0.922585946972582  0.9576028277566235  1.0000
  H   H26       1.0  0.19971462834467246  0.042401253677482494  0.0774011918170743  1.0000
  H   H27       1.0  0.6997177693212606  0.07740025325901456  0.04238786552789972  1.0000
  H   H28       1.0  0.8002759710932565  0.9576030198235869  0.9225934662707188  1.0000
  H   H29       1.0  0.6933961052573708  0.7260581121392988  0.20679137912506457  1.0000
  H   H30       1.0  0.8065647895019198  0.7932186228991966  0.27394259265734894  1.0000
  H   H31       1.0  0.30656671599449936  0.27393771000143374  0.7932339494025624  1.0000
  H   H32       1.0  0.19338632010519063  0.2067986942058795  0.7260561824324084  1.0000
  H   H33       1.0  0.8417907335238368  0.6085605984260452  0.15387721731090662  1.0000
  H   H34       1.0  0.6581924469743047  0.8461382842081449  0.39142624779199753  1.0000
  H   H35       1.0  0.15820657141199485  0.3914281415311862  0.8461488927097774  1.0000
  H   H36       1.0  0.3417744234060933  0.15387798739804742  0.6085669665199163  1.0000
  H   H37       1.0  0.5020562505388783  0.46208410033311503  0.28075407150979714  1.0000
  H   H38       1.0  0.9979296109430111  0.719259978822521  0.5379056200346141  1.0000
  H   H39       1.0  0.49792209194473014  0.5379029648982369  0.7192536952487172  1.0000
  H   H40       1.0  0.002030023032304513  0.28075443302634534  0.4620876968270408  1.0000
  H   H41       1.0  0.3487479781813578  0.5809217783479284  0.330523386476024  1.0000
  H   H42       1.0  0.15122389024269015  0.6694785825049577  0.4190761168487853  1.0000
  H   H43       1.0  0.6512101080709131  0.41906473876837674  0.6694717028118831  1.0000
  H   H44       1.0  0.8487344194655151  0.33052968695646007  0.580922906551649  1.0000
  H   H45       1.0  0.06421390434469029  0.07524480126657097  0.6282401815148828  1.0000
  H   H46       1.0  0.4358828871765824  0.37173070475618175  0.9247534638181634  1.0000
  H   H47       1.0  0.9358841140336625  0.9247550679751839  0.3717226990328727  1.0000
  H   H48       1.0  0.5641956083183217  0.6282527535246986  0.07524980632986457  1.0000
  H   H49       1.0  0.9216623151074331  0.021056215969139203  0.6935409219535841  1.0000
  H   H50       1.0  0.5784264728747174  0.3064425743652208  0.978958685944363  1.0000
  H   H51       1.0  0.07842414066768569  0.9789609787170545  0.30643466602181496  1.0000
  H   H52       1.0  0.42163197894716126  0.6935532860991883  0.021059441055669564  1.0000
  H   H53       1.0  0.8941373237519556  0.07293742979524613  0.592839330899416  1.0000
  H   H54       1.0  0.6059356896752917  0.4071444821068583  0.9270763582120053  1.0000
  H   H55       1.0  0.10594503417866014  0.9270785356181436  0.4071358553577013  1.0000
  H   H56       1.0  0.3941172385309812  0.5928513303453401  0.07294297650712173  1.0000
  H   H57       1.0  0.02330485064223356  0.8541342290203815  0.5834749456111794  1.0000
  H   H58       1.0  0.476667733623998  0.4165292747204035  0.14587211862428257  1.0000
  H   H59       1.0  0.9766579349336624  0.14587716710320817  0.41651875657482407  1.0000
  H   H60       1.0  0.5233023759177441  0.5834782501907512  0.8541420010371041  1.0000
  H   H61       1.0  0.8666803826096299  0.9335510713257306  0.5672774890446206  1.0000
  H   H62       1.0  0.6333245082290303  0.43272128499187795  0.06647351115245222  1.0000
  H   H63       1.0  0.13332419566326342  0.06647691717364519  0.4327161903638626  1.0000
  H   H64       1.0  0.36666791950631245  0.5672837564609098  0.9335543764310472  1.0000
  H   H65       1.0  0.9012687112220664  0.8846919872341557  0.667445417743636  1.0000
  H   H66       1.0  0.5987285475900351  0.332548903312329  0.11533969645749664  1.0000
  H   H67       1.0  0.09872721486903663  0.11534207128349287  0.3325436859579369  1.0000
  H   H68       1.0  0.40125136361499625  0.6674536005881464  0.8846913671564066  1.0000
  H   H69       1.0  0.2370421260152754  0.8949630137647232  0.5560098771601858  1.0000
  H   H70       1.0  0.26292615850698553  0.44397857350083564  0.10500016126781729  1.0000
  H   H71       1.0  0.7629163361634426  0.10500196983939959  0.4439655064296417  1.0000
  H   H72       1.0  0.7370412779974206  0.556016614812485  0.89498480960534  1.0000
  H   H73       1.0  0.596353108361889  0.33052495602814946  0.2886072083708484  1.0000
  H   H74       1.0  0.9036321813821504  0.7113977765407499  0.6694919635120441  1.0000
  H   H75       1.0  0.40364583948019134  0.6694936931576336  0.7114027141033503  1.0000
  H   H76       1.0  0.0963565700598537  0.2886115558171057  0.3305306482656292  1.0000
  H   H77       1.0  0.5526212025613759  0.2914550252225539  0.3798252012261116  1.0000
  H   H78       1.0  0.9474011549162855  0.620181097437552  0.7085689485774153  1.0000
  H   H79       1.0  0.4473818605731951  0.7085757684441134  0.6201841926267804  1.0000
  H   H80       1.0  0.052618332670753956  0.3798285849826044  0.2914408733899804  1.0000
  C   C1        1.0  0.40494226143211876  0.99899903665505  0.33631714521383327  1.0000
  C   C2        1.0  0.09508133351429396  0.6636846565250352  0.000981344391256334  1.0000
  C   C3        1.0  0.5950812378923233  0.0009708038345622032  0.6636845753025538  1.0000
  C   C4        1.0  0.9049560382283417  0.33631463773975406  0.9989982979415261  1.0000
  C   C5        1.0  0.4110654547562477  0.9378189625380314  0.2865939713068499  1.0000
  C   C6        1.0  0.08892549392601982  0.7134033030871194  0.06217462695016001  1.0000
  C   C7        1.0  0.5889178850126199  0.062168897594922605  0.7134020297834667  1.0000
  C   C8        1.0  0.9110748892224197  0.2865980107419048  0.9378190830949079  1.0000
  C   C9        1.0  0.41828078884361025  0.8548618879428105  0.3230519276080628  1.0000
  C   C10       1.0  0.08170368147156641  0.676943397249282  0.1451334768298906  1.0000
  C   C11       1.0  0.5816956883649594  0.14512289970990372  0.6769444306801231  1.0000
  C   C12       1.0  0.9182863136712097  0.32305907254770017  0.8548599504405702  1.0000
  C   C13       1.0  0.428157743734296  0.8001332725885247  0.27434532721808585  1.0000
  C   C14       1.0  0.07180239593262175  0.7256575003146039  0.19986246700250385  1.0000
  C   C15       1.0  0.5717862468277701  0.1998493688709857  0.7256615567526906  1.0000
  C   C16       1.0  0.9281649179005457  0.27435388893753293  0.8001336299874069  1.0000
  C   C17       1.0  0.4280812310538523  0.8264577907655165  0.19089411441623128  1.0000
  C   C18       1.0  0.07187021793521363  0.8091051724870864  0.1735432010796104  1.0000
  C   C19       1.0  0.5718541999688256  0.1735303533863402  0.8091054237758539  1.0000
  C   C20       1.0  0.9280800888223625  0.19090367046997153  0.826454836095138  1.0000
  C   C21       1.0  0.42380495746454017  0.9090543246777684  0.15589709993736994  1.0000
  C   C22       1.0  0.07617013719876559  0.844108585411206  0.09094632020563154  1.0000
  C   C23       1.0  0.576153972394863  0.09093025624753182  0.8441070635102647  1.0000
  C   C24       1.0  0.9237964478008465  0.15590522147967786  0.9090498469671998  1.0000
  C   C25       1.0  0.41411515701852863  0.9651270032558513  0.20286082170772352  1.0000
  C   C26       1.0  0.08587627882976533  0.7971373545181066  0.03487179447517259  1.0000
  C   C27       1.0  0.5858634445362868  0.03485836780483  0.7971380553562781  1.0000
  C   C28       1.0  0.9141155857664602  0.20287050296982298  0.9651270636847967  1.0000
  C   C29       1.0  0.4897753879576784  0.889210671809657  0.021510658755531306  1.0000
  C   C30       1.0  0.010209330151902014  0.9784971997604616  0.11078482917381649  1.0000
  C   C31       1.0  0.5102053872873569  0.11078254385017058  0.9784912758162322  1.0000
  C   C32       1.0  0.9897666835694493  0.021514852374203006  0.8892107147873247  1.0000
  C   C33       1.0  0.6341929393188936  0.845430752362887  0.027216183929994076  1.0000
  C   C34       1.0  0.8657991690705845  0.9728011946575915  0.15456194218977978  1.0000
  C   C35       1.0  0.36579824606298667  0.15456235610265875  0.9727979478307988  1.0000
  C   C36       1.0  0.13418040640009823  0.027217536429851898  0.8454338908834202  1.0000
  C   C37       1.0  0.700951479838473  0.7997443084067656  0.9704430229248402  1.0000
  C   C38       1.0  0.7990451411202882  0.0295798627142716  0.20024853039890192  1.0000
  C   C39       1.0  0.29905308871524033  0.20025250372528802  0.029571608863619783  1.0000
  C   C40       1.0  0.20094084346352756  0.9704400746924695  0.7997503504924521  1.0000
  C   C41       1.0  0.6249698230561763  0.7978546336701554  0.907919714375744  1.0000
  C   C42       1.0  0.8750408400611888  0.09209811057775849  0.2021336583197311  1.0000
  C   C43       1.0  0.3750483647061743  0.20214108565254918  0.09209192584751952  1.0000
  C   C44       1.0  0.12495953609280973  0.9079219391693627  0.7978630096686459  1.0000
  C   C45       1.0  0.4800598340259443  0.841609425200531  0.9037151879983013  1.0000
  C   C46       1.0  0.019938480912991014  0.0963012013208981  0.158374830179099  1.0000
  C   C47       1.0  0.519959143086794  0.1583755118688188  0.09628798524985882  1.0000
  C   C48       1.0  0.9800560787910373  0.9037121690056081  0.8416206410348579  1.0000
  C   C49       1.0  0.41210903008682465  0.88759657715476  0.9602348758230829  1.0000
  C   C50       1.0  0.087875106743283  0.03977280004475859  0.11239169653670439  1.0000
  C   C51       1.0  0.5878890218041875  0.1123912625977468  0.039768763510139096  1.0000
  C   C52       1.0  0.9121133930203981  0.9602345206439294  0.8876007121412499  1.0000
  C   C53       1.0  0.6997752416395714  0.7496728521374437  0.846785119508702  1.0000
  C   C54       1.0  0.8002624400900302  0.1532278943720868  0.2503167156598991  1.0000
  C   C55       1.0  0.3002592315888251  0.25032054650658614  0.15322585041820244  1.0000
  C   C56       1.0  0.19976407484852407  0.8467832053931871  0.7496809620192622  1.0000
  C   C57       1.0  0.5132188420380076  0.6595202243725921  0.2735999211241449  1.0000
  C   C58       1.0  0.9867512860503428  0.7264015248644141  0.34047400842354847  1.0000
  C   C59       1.0  0.48674773578324704  0.34046498797289365  0.7264055533802034  1.0000
  C   C60       1.0  0.01321308918464579  0.2736049813319283  0.6595236097508062  1.0000
  C   C61       1.0  0.6508934614384358  0.6685041011114947  0.22262249990433955  1.0000
  C   C62       1.0  0.8490632927177659  0.7773898942444504  0.33149376909017997  1.0000
  C   C63       1.0  0.3490660834448818  0.33148750679176686  0.7773995866503256  1.0000
  C   C64       1.0  0.15088518252792946  0.22262499671302993  0.6685041538022745  1.0000
  C   C65       1.0  0.7344936619910668  0.6026044154678799  0.19329849441847813  1.0000
  C   C66       1.0  0.7654762595300967  0.8067202513104945  0.397382622112147  1.0000
  C   C67       1.0  0.26548131639435724  0.3973805877230916  0.8067258028417397  1.0000
  C   C68       1.0  0.23447898235833256  0.19329722287238843  0.6026063787189668  1.0000
  C   C69       1.0  0.6838430588664793  0.5272546260211185  0.2148188887632045  1.0000
  C   C70       1.0  0.8161466124938955  0.7852007697937893  0.4727380221823338  1.0000
  C   C71       1.0  0.3161497031344852  0.47273723872697815  0.7851982693935753  1.0000
  C   C72       1.0  0.1838322644016516  0.21481619662510104  0.5272536826776886  1.0000
  C   C73       1.0  0.5434818071911351  0.5200789959698254  0.2639893576643431  1.0000
  C   C74       1.0  0.9564956160168591  0.7360202075139881  0.4799158635926801  1.0000
  C   C75       1.0  0.4564951136997736  0.4799123606344224  0.7360140409507139  1.0000
  C   C76       1.0  0.04346538298316461  0.2639899363833108  0.5200800829749282  1.0000
  C   C77       1.0  0.4578612238748221  0.5858141536906273  0.2926306503699578  1.0000
  C   C78       1.0  0.042109980559722336  0.7073676888158005  0.4141856600380009  1.0000
  C   C79       1.0  0.5421022237426671  0.4141766483949496  0.7073633732407671  1.0000
  C   C80       1.0  0.9578465367566195  0.2926356900166311  0.5858159178572252  1.0000
  C   C81       1.0  0.7813808872678012  0.45493104302612863  0.19087102288447966  1.0000
  C   C82       1.0  0.7186267950731846  0.8091542658554971  0.5450575411013219  1.0000
  C   C83       1.0  0.21863513007950533  0.5450578882782012  0.8091488947662809  1.0000
  C   C84       1.0  0.2813877735918311  0.1908722023347948  0.45491858455158507  1.0000
  C   C85       1.0  0.9785739604137618  0.038207501198023415  0.6308866982089896  1.0000
  C   C86       1.0  0.5214875409619993  0.3691001888274669  0.9618019817998587  1.0000
  C   C87       1.0  0.02148876189585288  0.9618071301753943  0.3690892659224686  1.0000
  C   C88       1.0  0.4785556945385708  0.630897487680464  0.038209863422586934  1.0000
  C   C89       1.0  0.9548923171849778  0.9061585274288575  0.6050344772284788  1.0000
  C   C90       1.0  0.5450888379519157  0.39496766529193655  0.09385609431370771  1.0000
  C   C91       1.0  0.04508468467069801  0.09386086420197161  0.3949562645041026  1.0000
  C   C92       1.0  0.45489260166101536  0.6050398385370245  0.9061643020970251  1.0000
  C   C93       1.0  0.19719333615162785  0.9524943393264068  0.5757295336766362  1.0000
  C   C94       1.0  0.30282243594109565  0.4242591072535972  0.04748008278379252  1.0000
  C   C95       1.0  0.8028145043019493  0.047484253092307  0.4242457098680816  1.0000
  C   C96       1.0  0.6971909244088366  0.5757393256761958  0.9525082459204057  1.0000
  N   N1        1.0  0.04997498997926911  0.9654311800860852  0.6022155530959737  1.0000
  N   N2        1.0  0.45005905911969524  0.3977706211192568  0.03456861374662172  1.0000
  N   N3        1.0  0.9500570869605484  0.03457055430312289  0.3977606056574814  1.0000
  N   N4        1.0  0.5499634871959527  0.6022251615959606  0.9654402059680222  1.0000
  O   O1        1.0  0.4061651821593417  0.9714767798949423  0.4122420131327686  1.0000
  O   O2        1.0  0.09386870574514464  0.5877599276782348  0.028486552574129645  1.0000
  O   O3        1.0  0.593872056733737  0.028484636330169604  0.5877613923989884  1.0000
  O   O4        1.0  0.9061734370107856  0.4122402551734581  0.9714743703404168  1.0000
  O   O5        1.0  0.3980686734030953  0.07297787639671328  0.2992277946552021  1.0000
  O   O6        1.0  0.10197559249258603  0.700784407381029  0.9270030077457604  1.0000
  O   O7        1.0  0.6019814633186515  0.926989031350878  0.7007780468487113  1.0000
  O   O8        1.0  0.8980923738678541  0.29923144569198706  0.07297439141433412  1.0000
  O   O9        1.0  0.4212909301906438  0.9390087171617266  0.07391241707457408  1.0000
  O   O10       1.0  0.0786966304504731  0.9260856967220547  0.06099405557282725  1.0000
  O   O11       1.0  0.578689110404845  0.060983277734152415  0.9260898977933038  1.0000
  O   O12       1.0  0.9212745335584173  0.073924441473352  0.9390065549546166  1.0000
  O   O13       1.0  0.8332697433443953  0.7140529153117258  0.8536821419428334  1.0000
  O   O14       1.0  0.6667855022566372  0.1463265989751079  0.2859582820619408  1.0000
  O   O15       1.0  0.16677584718236457  0.2859598123367775  0.1463373558735128  1.0000
  O   O16       1.0  0.33325623227840856  0.8536837413274299  0.7140570123300664  1.0000
  O   O17       1.0  0.6277673623476687  0.7438112345524103  0.7929607571556117  1.0000
  O   O18       1.0  0.8722722112295997  0.20706863944987927  0.2561537424464504  1.0000
  O   O19       1.0  0.3722981096473675  0.25615744871171126  0.20705453288771739  1.0000
  O   O20       1.0  0.12775940944700898  0.7929530748087712  0.7438228016855106  1.0000
  O   O21       1.0  0.42949889942955377  0.7188506943885783  0.3119584327059854  1.0000
  O   O22       1.0  0.070470162489869  0.6880426849548015  0.2811473531957631  1.0000
  O   O23       1.0  0.5704530114351415  0.28113868941622394  0.6880459198682302  1.0000
  O   O24       1.0  0.9295051978219177  0.31197175359017854  0.7188505788649734  1.0000
  O   O25       1.0  0.9101955242616954  0.45999154570280604  0.14659313275910796  1.0000
  O   O26       1.0  0.5898101786212991  0.8534615561983968  0.5399848845593951  1.0000
  O   O27       1.0  0.08981767253618503  0.5399940405742568  0.8534487853539972  1.0000
  O   O28       1.0  0.41019280830926175  0.1466066730957465  0.45998870435602157  1.0000
  O   O29       1.0  0.7374286798587093  0.3852971641016296  0.21957822596680643  1.0000
  O   O30       1.0  0.7625326895505113  0.7804362634618868  0.6146977809675461  1.0000
  O   O31       1.0  0.26256094776007904  0.6146971802742486  0.7804334588771694  1.0000
  O   O32       1.0  0.2374257949433058  0.2195770993793928  0.3852831676485025  1.0000
  O   O33       1.0  0.5146975144332658  0.3060141458332808  0.32835983869441776  1.0000
  O   O34       1.0  0.9853059485018321  0.6716505266512272  0.6939975266002277  1.0000
  O   O35       1.0  0.4853065962196511  0.6940021178778365  0.6716495110049222  1.0000
  O   O36       1.0  0.014699450114214647  0.32836097204636155  0.30600646742076526  1.0000
  O   O37       1.0  0.2856936145325619  0.0007303517898549017  0.5726617290371578  1.0000
  O   O38       1.0  0.214400859938408  0.42732228248826937  0.9992176458789713  1.0000
  O   O39       1.0  0.7143940705866073  0.9992227912446549  0.427303289094077  1.0000
  O   O40       1.0  0.7856827044857796  0.5726738594317381  0.0007460192474369576  1.0000
