data_image0
_chemical_formula_structural       Zn2H32C36N12Cl4
_chemical_formula_sum              "Zn2 H32 C36 N12 Cl4"
_cell_length_a       5.79180749868205
_cell_length_b       11.953780548330586
_cell_length_c       13.631863424857537
_cell_angle_alpha    90.7690064847204
_cell_angle_beta     102.26191777861726
_cell_angle_gamma    89.98248591466856

_space_group_name_H-M_alt    "P 1"
_space_group_IT_number       1

loop_
  _space_group_symop_operation_xyz
  'x, y, z'

loop_
  _atom_site_type_symbol
  _atom_site_label
  _atom_site_symmetry_multiplicity
  _atom_site_fract_x
  _atom_site_fract_y
  _atom_site_fract_z
  _atom_site_occupancy
  Zn  Zn1       1.0  0.4195482760610787  0.2500144968072462  0.9999405071938623  1.0000
  Zn  Zn2       1.0  0.5804824017049981  0.7499861960590406  5.952191926892069e-05  1.0000
  H   H1        1.0  0.5370378285678257  0.314184039678338  0.21801879889504505  1.0000
  H   H2        1.0  0.3185447370090344  0.1858555240035429  0.781837687054903  1.0000
  H   H3        1.0  0.4629716631687373  0.6858183401260617  0.7819792038198656  1.0000
  H   H4        1.0  0.6814629034259739  0.8141435015851711  0.21816154858585426  1.0000
  H   H5        1.0  0.3607130316248259  0.4261015051418155  0.33802020429217094  1.0000
  H   H6        1.0  0.02208972847821401  0.074026817809596  0.6618821716854126  1.0000
  H   H7        1.0  0.6392839609144046  0.5738916709473189  0.6619779031825104  1.0000
  H   H8        1.0  0.9779249854001859  0.9259730398348793  0.33811776337287097  1.0000
  H   H9        1.0  0.7529541024964671  0.47891328675504496  0.09697998244818956  1.0000
  H   H10       1.0  0.6559309727579219  0.0211658062153575  0.903127408463348  1.0000
  H   H11       1.0  0.2470415364566918  0.5210849678744012  0.9030085391285708  1.0000
  H   H12       1.0  0.34406580230645284  0.9788356917211088  0.09687815107502469  1.0000
  H   H13       1.0  0.2889001496149177  0.6793136710825961  0.31929755350402184  1.0000
  H   H14       1.0  0.9695033507372981  0.8209181037256528  0.6810599572907208  1.0000
  H   H15       1.0  0.711065017026243  0.32067283701817917  0.680696625458232  1.0000
  H   H16       1.0  0.030493383166309198  0.17907837448433375  0.3189455160224242  1.0000
  H   H17       1.0  0.957044311004857  0.3681906742774856  0.9865508841840549  1.0000
  H   H18       1.0  0.9706087406230636  0.13186802732773373  0.013529419684481087  1.0000
  H   H19       1.0  0.042977853908922704  0.6318142517643109  0.013441052120128897  1.0000
  H   H20       1.0  0.029398769327031005  0.8681359913693852  0.9864742871944967  1.0000
  H   H21       1.0  0.8269927053953552  0.602202030887682  0.2534051292313464  1.0000
  H   H22       1.0  0.573219966935504  0.8981034298941069  0.746705866278809  1.0000
  H   H23       1.0  0.17298804068136056  0.3977802394722687  0.7465978275865196  1.0000
  H   H24       1.0  0.4267893290736851  0.10190643957288611  0.2532988432934218  1.0000
  H   H25       1.0  0.7785241783056662  0.4796272658463748  0.3179802573166056  1.0000
  H   H26       1.0  0.4601174674645989  0.02056517796883379  0.6820168847979743  1.0000
  H   H27       1.0  0.2214675681525264  0.5203550597744453  0.6820134953742638  1.0000
  H   H28       1.0  0.539914981473217  0.9794430344731496  0.3179849065856572  1.0000
  H   H29       1.0  0.5204284026698573  0.7093038233587877  0.5186923859123809  1.0000
  H   H30       1.0  0.0030514950861189045  0.7911540005577178  0.4818336152545867  1.0000
  H   H31       1.0  0.47952820412272246  0.29069860843087975  0.48129755561061666  1.0000
  H   H32       1.0  0.9969271718527537  0.2088424269567142  0.5181803771388971  1.0000
  C   C1        1.0  0.3638906799266408  0.3528997253369043  0.19465981519797276  1.0000
  C   C2        1.0  0.16887557450248633  0.14719301022023495  0.8052771278213908  1.0000
  C   C3        1.0  0.6361364073325787  0.6471009609393475  0.8053413330628272  1.0000
  C   C4        1.0  0.8311584637424403  0.852810995793291  0.19472841714703998  1.0000
  C   C5        1.0  0.038524473619659695  0.4619783157550899  0.22773501101423926  1.0000
  C   C6        1.0  0.8104117987467063  0.03818978911934318  0.7722356332553699  1.0000
  C   C7        1.0  0.9614973926648317  0.5380215506331111  0.7722634165842094  1.0000
  C   C8        1.0  0.18959026253484978  0.9618100321509715  0.22777041132624729  1.0000
  C   C9        1.0  0.2614936995371764  0.41423998976199516  0.2613004377355495  1.0000
  C   C10       1.0  0.9998070281898492  0.08590145002117569  0.7386146369234508  1.0000
  C   C11       1.0  0.7385155599796535  0.5857514917866309  0.7387010323355339  1.0000
  C   C12       1.0  0.00020409065577099816  0.9140908803162515  0.2613848262736695  1.0000
  C   C13       1.0  0.0814889464661235  0.5391408386970086  0.48478590550882916  1.0000
  C   C14       1.0  0.596900766110501  0.9609742282948371  0.5153306181211761  1.0000
  C   C15       1.0  0.9184871208709281  0.4608649270223494  0.515205977375949  1.0000
  C   C16       1.0  0.4030926953288159  0.0390331548899212  0.484670314476972  1.0000
  C   C17       1.0  0.9266989987555263  0.4436522515300536  0.1273802036177116  1.0000
  C   C18       1.0  0.7992465648632106  0.056474339553688  0.8726574752078448  1.0000
  C   C19       1.0  0.07331589596287813  0.5563417852576364  0.8726137841604851  1.0000
  C   C20       1.0  0.2007646408298598  0.9435355509537117  0.1273437514485565  1.0000
  C   C21       1.0  0.2557363524406568  0.6446673890022084  0.3882034477113335  1.0000
  C   C22       1.0  0.8674718026097994  0.8554486781270468  0.6120931987937935  1.0000
  C   C23       1.0  0.7442287854504029  0.35534000357112927  0.6117962063711885  1.0000
  C   C24       1.0  0.1325122981102496  0.1445536156199907  0.3879192154742839  1.0000
  C   C25       1.0  0.04140915950721079  0.38218845757813086  0.06505984982050707  1.0000
  C   C26       1.0  0.9763275390309119  0.1178792657712151  0.9349657266352691  1.0000
  C   C27       1.0  0.9586146209870847  0.6178189505674965  0.9349366858709441  1.0000
  C   C28       1.0  0.023666094054085804  0.8821281440316183  0.06503082094988599  1.0000
  C   C29       1.0  0.9158293748317732  0.5303755026311592  0.2948834647596214  1.0000
  C   C30       1.0  0.6204603637452735  0.9698189506961865  0.7051368549984217  1.0000
  C   C31       1.0  0.0841710675104466  0.4696109737703365  0.7051156011069182  1.0000
  C   C32       1.0  0.3795402169666032  0.0301809160789261  0.29486170996654687  1.0000
  C   C33       1.0  0.3676222601695541  0.6575928898057483  0.48745133852290207  1.0000
  C   C34       1.0  0.8810006928444166  0.8426752937262876  0.5129277158357509  1.0000
  C   C35       1.0  0.632334292909107  0.3423995069673109  0.5125376997141442  1.0000
  C   C36       1.0  0.11899250893466018  0.15731784471839208  0.48707662663508694  1.0000
  N   N1        1.0  0.07376648810488011  0.5696485604066551  0.3866748415044157  1.0000
  N   N2        1.0  0.6867627682173137  0.9304057753366521  0.6134350531082687  1.0000
  N   N3        1.0  0.9262111387645717  0.43035633649586896  0.6133223141196495  1.0000
  N   N4        1.0  0.3132324953355621  0.0696024477642041  0.3865653342869138  1.0000
  N   N5        1.0  0.256958206338652  0.3374282647527663  0.09740806889505647  1.0000
  N   N6        1.0  0.15937078407215918  0.1626751884236768  0.9025528289321583  1.0000
  N   N7        1.0  0.7430583165134266  0.662573269428883  0.902591335331138  1.0000
  N   N8        1.0  0.8406347452585692  0.8373271271181865  0.09745579379190156  1.0000
  N   N9        1.0  0.2589512659028159  0.5926832737164389  0.5468049632639449  1.0000
  N   N10       1.0  0.7130964671441973  0.9075720714941152  0.45347850113140703  1.0000
  N   N11       1.0  0.7410405936762386  0.4073233006066486  0.45319139868868047  1.0000
  N   N12       1.0  0.28689314982105424  0.09242523902957338  0.5465277631769538  1.0000
  Cl  Cl1       1.0  0.5547447748648793  0.35544880610610347  0.8876393306924583  1.0000
  Cl  Cl2       1.0  0.6670455173430766  0.1445692596261381  0.1122978594323243  1.0000
  Cl  Cl3       1.0  0.44528058355047767  0.6445460382729565  0.11235935320409139  1.0000
  Cl  Cl4       1.0  0.33295853944520815  0.8554305959936243  0.8877025097269777  1.0000
