data_image0
_chemical_formula_structural       Zn2H12C14O16
_chemical_formula_sum              "Zn2 H12 C14 O16"
_cell_length_a       5.0522555901552755
_cell_length_b       9.167227104316131
_cell_length_c       9.968200412288233
_cell_angle_alpha    104.71892894782873
_cell_angle_beta     95.95081806265075
_cell_angle_gamma    93.10926126161011

_space_group_name_H-M_alt    "P 1"
_space_group_IT_number       1

loop_
  _space_group_symop_operation_xyz
  'x, y, z'

loop_
  _atom_site_type_symbol
  _atom_site_label
  _atom_site_symmetry_multiplicity
  _atom_site_fract_x
  _atom_site_fract_y
  _atom_site_fract_z
  _atom_site_occupancy
  Zn  Zn1       1.0  0.2941241165209405  0.6835139386183898  0.780052745201836  1.0000
  Zn  Zn2       1.0  0.705878002531243  0.3164881916961022  0.21994725966966666  1.0000
  H   H1        1.0  0.5520887475811448  0.457752100183626  0.6605016404166265  1.0000
  H   H2        1.0  0.4479090502100576  0.5422477705792446  0.33949760869968776  1.0000
  H   H3        1.0  0.5548697302856881  0.4596325819466144  0.824923784533013  1.0000
  H   H4        1.0  0.44513039905636725  0.5403695504072841  0.175076121083876  1.0000
  H   H5        1.0  0.5883551280965449  0.9230844805220926  0.7921317145407158  1.0000
  H   H6        1.0  0.41164432624282904  0.07691311871685969  0.20786807883757774  1.0000
  H   H7        1.0  0.7665488829126729  0.8135135595692233  0.8698425091854887  1.0000
  H   H8        1.0  0.23345344177496222  0.186489679144259  0.1301617833222579  1.0000
  H   H9        1.0  0.7222037370329203  0.8891100555741501  0.5208339664597974  1.0000
  H   H10       1.0  0.2777899017388989  0.11088869330637859  0.47916380327098557  1.0000
  H   H11       1.0  0.7159197261232818  0.8912630414529163  0.08384057406190963  1.0000
  H   H12       1.0  0.2840847244797543  0.1087413504526111  0.9161600873101677  1.0000
  C   C1        1.0  0.13361205067724308  0.6963753379371412  0.5123202205984044  1.0000
  C   C2        1.0  0.8663837660826129  0.3036245290110812  0.48767993151660255  1.0000
  C   C3        1.0  0.9893538177591664  0.756008255196555  0.4005054966663125  1.0000
  C   C4        1.0  0.010645798821798287  0.24399048171167687  0.599493573081638  1.0000
  C   C5        1.0  0.791741046079224  0.8512362902983954  0.41886094971640386  1.0000
  C   C6        1.0  0.20825459108149147  0.14876245068866473  0.5811379215223128  1.0000
  C   C7        1.0  0.6711613996724779  0.9012973105366202  0.30280636581184694  1.0000
  C   C8        1.0  0.3288342288094697  0.09870143630450198  0.6971915031735565  1.0000
  C   C9        1.0  0.7893018001470438  0.853139982522471  0.17468230458838013  1.0000
  C   C10       1.0  0.21070230861526792  0.14686214575259976  0.82531779953775  1.0000
  C   C11       1.0  0.9840210045784159  0.7557523486470857  0.16565452274761586  1.0000
  C   C12       1.0  0.01598310418389561  0.24424977962799238  0.8343455813785142  1.0000
  C   C13       1.0  0.12157886810027209  0.693096304338681  0.039130609473986146  1.0000
  C   C14       1.0  0.8784272303721606  0.30690582189698284  0.9608695939067573  1.0000
  O   O1        1.0  0.31169443851183587  0.6079509864218763  0.48281833390481677  1.0000
  O   O2        1.0  0.6883010364072887  0.3920466168958967  0.517181260964236  1.0000
  O   O3        1.0  0.062218251403542986  0.7451604845859024  0.6349829273385055  1.0000
  O   O4        1.0  0.9377793841460685  0.25483824850768855  0.3650170454081447  1.0000
  O   O5        1.0  0.08112780795318739  0.7047673049906179  0.2754525265190538  1.0000
  O   O6        1.0  0.9188719882269181  0.2952325578787764  0.7245478241051944  1.0000
  O   O7        1.0  0.4732411695572196  0.9812294157965482  0.31316385926800194  1.0000
  O   O8        1.0  0.5267494366247476  0.0187625559401781  0.686830134963664  1.0000
  O   O9        1.0  0.30175543687781914  0.6063475580689114  0.04566337068454374  1.0000
  O   O10       1.0  0.6982443506235114  0.3936523106545451  0.9543359776863838  1.0000
  O   O11       1.0  0.04687067144960367  0.7370297795319303  0.9286674317878012  1.0000
  O   O12       1.0  0.9531336082330667  0.2629734805583653  0.07133295096129902  1.0000
  O   O13       1.0  0.4568817905548883  0.4914173648730724  0.7458126572359661  1.0000
  O   O14       1.0  0.5431181678668081  0.5085836356656086  0.2541869697579386  1.0000
  O   O15       1.0  0.587432870893764  0.8501207279077364  0.8545259810141774  1.0000
  O   O16       1.0  0.41256909459560376  0.1498802588834138  0.1454757497409815  1.0000
