data_image0
_chemical_formula_structural       Cd2H28C28S4N12
_chemical_formula_sum              "Cd2 H28 C28 S4 N12"
_cell_length_a       9.9196751825499
_cell_length_b       10.34315522268266
_cell_length_c       10.425667033317072
_cell_angle_alpha    63.91788485463956
_cell_angle_beta     63.62752741593367
_cell_angle_gamma    82.04182617256937

_space_group_name_H-M_alt    "P 1"
_space_group_IT_number       1

loop_
  _space_group_symop_operation_xyz
  'x, y, z'

loop_
  _atom_site_type_symbol
  _atom_site_label
  _atom_site_symmetry_multiplicity
  _atom_site_fract_x
  _atom_site_fract_y
  _atom_site_fract_z
  _atom_site_occupancy
  Cd  Cd1       1.0  0.1176651560965567  0.28668465296509993  0.40171779186157847  1.0000
  Cd  Cd2       1.0  0.8823349410618987  0.7133153029421703  0.5982816955813063  1.0000
  H   H1        1.0  0.9591745156362563  0.6416533709208492  0.24486271131346604  1.0000
  H   H2        1.0  0.040824442945158496  0.3583465827306254  0.7551353456578908  1.0000
  H   H3        1.0  0.09839763641723918  0.8135045514526451  0.919179677639441  1.0000
  H   H4        1.0  0.9016013286332624  0.18649540010626708  0.08081933666333888  1.0000
  H   H5        1.0  0.34185835686245986  0.80073646679552  0.7010799827324303  1.0000
  H   H6        1.0  0.6581417467650895  0.19926348701918772  0.29892046204187034  1.0000
  H   H7        1.0  0.4546379308666317  0.6542506221054153  0.7498316303321672  1.0000
  H   H8        1.0  0.5453633713859745  0.34575041726795047  0.2501678306083194  1.0000
  H   H9        1.0  0.37318349150965696  0.6508100294792101  0.5551308212519357  1.0000
  H   H10       1.0  0.6268201350068664  0.34919210189373456  0.44486717166342504  1.0000
  H   H11       1.0  0.18118525456481646  0.6387301817743204  0.6896419093775209  1.0000
  H   H12       1.0  0.8188182130411263  0.3612697955483099  0.31035516816002234  1.0000
  H   H13       1.0  0.2987001301484895  0.4946503944664398  0.7361028665489969  1.0000
  H   H14       1.0  0.7013011656350301  0.5053506469994885  0.26389563706007385  1.0000
  H   H15       1.0  0.5746268920286752  0.32318561480459346  0.8633934778130264  1.0000
  H   H16       1.0  0.4253732245370542  0.676814334824982  0.13660888162411328  1.0000
  H   H17       1.0  0.7554660975704336  0.13590796224603702  0.8345394281092453  1.0000
  H   H18       1.0  0.2445352240894394  0.8640930708496266  0.16546290482549625  1.0000
  H   H19       1.0  0.5226068378821864  0.8653597667448376  0.3344786306504307  1.0000
  H   H20       1.0  0.4773899017669621  0.13464016356195424  0.6655251813606424  1.0000
  H   H21       1.0  0.3416853566043939  0.053630905503688084  0.3637758824868341  1.0000
  H   H22       1.0  0.6583114495618645  0.9463701060133897  0.6362264725503054  1.0000
  H   H23       1.0  0.8450920089137809  0.9062273409859998  0.9424456781419505  1.0000
  H   H24       1.0  0.15490696260581427  0.09377260848034295  0.05755429349224533  1.0000
  H   H25       1.0  0.7005828166430703  0.7712488958383259  0.10039693566810833  1.0000
  H   H26       1.0  0.2994150357067582  0.22875104509452615  0.8996044774888147  1.0000
  H   H27       1.0  0.8168885002750628  0.84737727116029  0.14187878663843648  1.0000
  H   H28       1.0  0.18311032527213197  0.15262052007060584  0.8581221842807735  1.0000
  C   C1        1.0  0.187502459192018  0.5591588104913966  0.4438080756979302  1.0000
  C   C2        1.0  0.8124969502447925  0.44084761368127773  0.5561888980812101  1.0000
  C   C3        1.0  0.06115048067093196  0.938715657918116  0.647786771149214  1.0000
  C   C4        1.0  0.9388529204178937  0.06128323819422115  0.35221176336225574  1.0000
  C   C5        1.0  0.054371586715497196  0.6211534884360573  0.1527503863981536  1.0000
  C   C6        1.0  0.9456273182869878  0.37884537981999955  0.8472510422099686  1.0000
  C   C7        1.0  0.12190087556562189  0.707726510715517  0.9906739563016839  1.0000
  C   C8        1.0  0.878097036832223  0.29227451352018347  0.009325042549896478  1.0000
  C   C9        1.0  0.241404886127718  0.5090557522278443  0.047284258008012676  1.0000
  C   C10       1.0  0.7585940789227833  0.49094419933106775  0.9527147562947673  1.0000
  C   C11       1.0  0.3415166479935294  0.6826857099882699  0.7574090617499679  1.0000
  C   C12       1.0  0.6584845812728729  0.3173142502673726  0.24259089883302923  1.0000
  C   C13       1.0  0.29481230397510677  0.612239795006232  0.6809378298700394  1.0000
  C   C14       1.0  0.7051912430861266  0.3877612593415518  0.319059705356409  1.0000
  C   C15       1.0  0.4458036481905339  0.1996249016955999  0.11535119780125312  1.0000
  C   C16       1.0  0.5541953556745156  0.8003750373079155  0.884653560490037  1.0000
  C   C17       1.0  0.563370335938231  0.22226861215982294  0.9657315695885198  1.0000
  C   C18       1.0  0.4366321843467062  0.7777335064944919  0.03426977951240693  1.0000
  C   C19       1.0  0.6641190811095825  0.11664332166855466  0.9507512574957101  1.0000
  C   C20       1.0  0.3358799892725769  0.8833576985452535  0.04925204382165326  1.0000
  C   C21       1.0  0.6511466281701742  0.9863438975790112  0.0824500290635798  1.0000
  C   C22       1.0  0.3488513036349445  0.013657120378994093  0.9175518417822555  1.0000
  C   C23       1.0  0.5339249524445293  0.96557899270347  0.23105409847305225  1.0000
  C   C24       1.0  0.46607403848233286  0.03442095048517759  0.7689487451553986  1.0000
  C   C25       1.0  0.4323052236749163  0.07017513316607447  0.24812262800718077  1.0000
  C   C26       1.0  0.5676937543137724  0.9298248142077054  0.7518783009584312  1.0000
  C   C27       1.0  0.7596799512717568  0.872251784820854  0.06509079555852539  1.0000
  C   C28       1.0  0.2403166959839211  0.12774707264590998  0.9349106441007962  1.0000
  S   S1        1.0  0.29852575119222285  0.4268033049619645  0.447467559520028  1.0000
  S   S2        1.0  0.7014763718162556  0.5731934285665756  0.5525315011363502  1.0000
  S   S3        1.0  0.15308453480692918  0.06241055880420276  0.6419881417005158  1.0000
  S   S4        1.0  0.8469155558824325  0.9375893991956373  0.3580103884109533  1.0000
  N   N1        1.0  0.10812480323745888  0.6561118538211728  0.43976012647819845  1.0000
  N   N2        1.0  0.8918828749791102  0.3438838327942903  0.5602370128641426  1.0000
  N   N3        1.0  0.9950981665120225  0.8469762155046466  0.6557300844542763  1.0000
  N   N4        1.0  0.004904023013566001  0.15302159923417946  0.34426751922817533  1.0000
  N   N5        1.0  0.1290960195532733  0.4989961136778118  0.18565748072239785  1.0000
  N   N6        1.0  0.8709039981498918  0.5010027652043049  0.8143415490315816  1.0000
  N   N7        1.0  0.23904216304781298  0.6360858613511479  0.9256415341830292  1.0000
  N   N8        1.0  0.7609580070968461  0.3639151736738454  0.07435745361735256  1.0000
  N   N9        1.0  0.34715556094816696  0.41325715340003893  0.018990136266438643  1.0000
  N   N10       1.0  0.6528433375852246  0.5867417169485872  0.9810103350102607  1.0000
  N   N11       1.0  0.33900195546007683  0.29993590997329267  0.14224921689900327  1.0000
  N   N12       1.0  0.6609980687121748  0.7000629668162615  0.8577507701863919  1.0000
