data_image0
_chemical_formula_structural       Zn2H24C44Br2N4O8
_chemical_formula_sum              "Zn2 H24 C44 Br2 N4 O8"
_cell_length_a       11.552393734368332
_cell_length_b       15.843086093025022
_cell_length_c       15.893181717064719
_cell_angle_alpha    89.99982432356597
_cell_angle_beta     90.0924166642163
_cell_angle_gamma    90.00010164328624

_space_group_name_H-M_alt    "P 1"
_space_group_IT_number       1

loop_
  _space_group_symop_operation_xyz
  'x, y, z'

loop_
  _atom_site_type_symbol
  _atom_site_label
  _atom_site_symmetry_multiplicity
  _atom_site_fract_x
  _atom_site_fract_y
  _atom_site_fract_z
  _atom_site_occupancy
  Zn  Zn1       1.0  0.5014837094846811  0.49999950160847834  0.4132780863959198  1.0000
  Zn  Zn2       1.0  0.4985192383387371  0.49999986587506845  0.5867236879747109  1.0000
  H   H1        1.0  0.8664842674434895  0.16726372025921424  0.6356036969322716  1.0000
  H   H2        1.0  0.13352220453791833  0.16725860960147537  0.3643984791124523  1.0000
  H   H3        1.0  0.13351695169452432  0.8327432215079823  0.36439618656336836  1.0000
  H   H4        1.0  0.8664859353141097  0.832736970742559  0.6356045634587346  1.0000
  H   H5        1.0  0.7456549709411959  0.29862924364724813  0.3654817406006501  1.0000
  H   H6        1.0  0.25433883615509245  0.2986329321926817  0.6345187487746954  1.0000
  H   H7        1.0  0.25434105785126354  0.7013675990779333  0.6345156163171025  1.0000
  H   H8        1.0  0.7456545889821059  0.7013727471853173  0.36548363682611296  1.0000
  H   H9        1.0  0.744617405088768  0.29785436081856187  0.6350307244054605  1.0000
  H   H10       1.0  0.2553859219705785  0.2978525624804149  0.36496978531946667  1.0000
  H   H11       1.0  0.2553829492724091  0.7021487938080925  0.3649685282639794  1.0000
  H   H12       1.0  0.7446178906258395  0.702147436192881  0.6350326198822103  1.0000
  H   H13       1.0  0.8675562865473124  0.16803103059230304  0.36490019440402216  1.0000
  H   H14       1.0  0.13244066970769103  0.16803582158147634  0.6350988153109397  1.0000
  H   H15       1.0  0.13244580074891132  0.8319645497555116  0.6350978031437506  1.0000
  H   H16       1.0  0.867555352291447  0.8319660706572665  0.36490357519372196  1.0000
  H   H17       1.0  0.3144698853947432  0.49999956826378156  0.2902443841829836  1.0000
  H   H18       1.0  0.6855321900078337  0.5000004304016699  0.709762422148664  1.0000
  H   H19       1.0  0.6708803353565856  0.4999991996197295  0.269738976325975  1.0000
  H   H20       1.0  0.32912001645022576  0.5000001678630996  0.7302621639472875  1.0000
  H   H21       1.0  0.6618514771838663  0.49999943710588474  0.1104680436715881  1.0000
  H   H22       1.0  0.3381445465120763  0.4999999303741518  0.8895330884382843  1.0000
  H   H23       1.0  0.2895477502309447  0.4999991637816665  0.1312794680065323  1.0000
  H   H24       1.0  0.7104473993443038  0.5000008348783425  0.8687279544630258  1.0000
  C   C1        1.0  0.8805515825025836  1.0693889863000004e-06  0.5002019068102186  1.0000
  C   C2        1.0  0.11945188380520479  0.999999945053169  0.4998039244279652  1.0000
  C   C3        1.0  0.7378165487084374  0.3057728429245401  0.5002034046459087  1.0000
  C   C4        1.0  0.2621859361343298  0.305773797371181  0.4997939331070782  1.0000
  C   C5        1.0  0.2621846738216504  0.6942277869449355  0.4997939620620926  1.0000
  C   C6        1.0  0.7378135517516923  0.6942268324933283  0.5002059471328977  1.0000
  C   C7        1.0  0.9390298622708856  0.07768483598511008  0.5001535263845867  1.0000
  C   C8        1.0  0.06097638795056071  0.07768489800889711  0.4998527001791685  1.0000
  C   C9        1.0  0.060973943529170106  0.9223176874411225  0.4998539124078718  1.0000
  C   C10       1.0  0.9390291482423835  0.9223163630371829  0.5001553710799271  1.0000
  C   C11       1.0  0.8408726676016088  0.19652135159075362  0.5763085264536156  1.0000
  C   C12       1.0  0.15912954873932963  0.1965198801143586  0.4236922930967707  1.0000
  C   C13       1.0  0.15912336034855912  0.8034818030350266  0.42368945965377236  1.0000
  C   C14       1.0  0.8408742630056381  0.8034788561776622  0.5763107413061803  1.0000
  C   C15       1.0  0.7738573064764864  0.26963103404139593  0.4241941234756226  1.0000
  C   C16       1.0  0.2261424906872094  0.26963549659834746  0.5758058372572703  1.0000
  C   C17       1.0  0.22614478081973743  0.7303645463064187  0.5758038740721501  1.0000
  C   C18       1.0  0.773854396087231  0.7303689204006146  0.42419718407552404  1.0000
  C   C19       1.0  0.7731991367695626  0.2692514559543397  0.576286479040256  1.0000
  C   C20       1.0  0.2268032563332056  0.26924817864620115  0.4237134877692412  1.0000
  C   C21       1.0  0.2267986224257186  0.7307523298627245  0.4237115103315147  1.0000
  C   C22       1.0  0.7731979619426568  0.7307486640775239  0.5762870249412442  1.0000
  C   C23       1.0  0.8740093206232797  0.15885395428955462  0.5002497260400176  1.0000
  C   C24       1.0  0.1259945350077416  0.15885473216551563  0.4997518417466651  1.0000
  C   C25       1.0  0.1259918993554905  0.8411454131967202  0.4997495282679267  1.0000
  C   C26       1.0  0.8740092750396612  0.8411458976950499  0.5002524510520345  1.0000
  C   C27       1.0  0.6575339222975742  0.3800960635768575  0.49984611789454186  1.0000
  C   C28       1.0  0.3424687533633132  0.380098383489667  0.5001428118240625  1.0000
  C   C29       1.0  0.34246817775292027  0.6199039351164899  0.5001424416564433  1.0000
  C   C30       1.0  0.6575298816494595  0.6199022463887118  0.4998476287932334  1.0000
  C   C31       1.0  0.841523062073314  0.1969552120436049  0.4242048305234576  1.0000
  C   C32       1.0  0.15847742153071212  0.19696021802509736  0.5757978720160962  1.0000
  C   C33       1.0  0.15847556103664573  0.8030422618705232  0.5757944188893589  1.0000
  C   C34       1.0  0.8415220612595604  0.8030435677844282  0.424205783415033  1.0000
  C   C35       1.0  0.38804607370540367  0.4999996814210733  0.24742257706601115  1.0000
  C   C36       1.0  0.6119456167800977  0.4999996860503941  0.7525823220764778  1.0000
  C   C37       1.0  0.5888287231854505  0.499999829535966  0.23573320574497095  1.0000
  C   C38       1.0  0.4111724899954297  0.5000008003229297  0.7642710821557015  1.0000
  C   C39       1.0  0.5836800532491254  0.49999932823300963  0.14853449170124827  1.0000
  C   C40       1.0  0.4163168292688085  0.49999940804973153  0.8514716756369437  1.0000
  C   C41       1.0  0.4741639685995693  0.499999947251027  0.11000015482830608  1.0000
  C   C42       1.0  0.5258311852245613  0.4999994202236381  0.8900041216455603  1.0000
  C   C43       1.0  0.37493169098866735  0.49999917468213084  0.16039948651785352  1.0000
  C   C44       1.0  0.6250651923799565  0.5000001927917311  0.8396060516200307  1.0000
  Br  Br1       1.0  0.7152494019947967  0.9999986846436143  0.4997784757790171  1.0000
  Br  Br2       1.0  0.2847539006073703  0.9999920927987987  0.5002135805734156  1.0000
  N   N1        1.0  0.49295021231534264  0.5000003248425173  0.28395994023725984  1.0000
  N   N2        1.0  0.507051865637024  0.49999967382581906  0.7160449784963916  1.0000
  N   N3        1.0  0.454357273925325  0.5000000691267131  0.0218211835917899  1.0000
  N   N4        1.0  0.5456361478052898  0.49999992953603123  0.9781837188150817  1.0000
  O   O1        1.0  0.6248462230408977  0.40853988690354026  0.5709961243827165  1.0000
  O   O2        1.0  0.3751521975514933  0.40853804831324686  0.4289895637568647  1.0000
  O   O3        1.0  0.37515155315293924  0.5914638989327585  0.42898928100238715  1.0000
  O   O4        1.0  0.6248438431384288  0.5914575320450837  0.57099898437216  1.0000
  O   O5        1.0  0.6257341472678277  0.40825165167989746  0.4282459494975582  1.0000
  O   O6        1.0  0.3742755274241603  0.4082569500243665  0.5717385023431305  1.0000
  O   O7        1.0  0.3742722859900525  0.5917458222613802  0.5717388430246969  1.0000
  O   O8        1.0  0.6257283064250388  0.5917468358139218  0.42824817286938804  1.0000
