data_image0
_chemical_formula_structural       Er2H44C54S4N14O28
_chemical_formula_sum              "Er2 H44 C54 S4 N14 O28"
_cell_length_a       9.538971892294077
_cell_length_b       12.886791687172868
_cell_length_c       14.5927
_cell_angle_alpha    67.95850599756366
_cell_angle_beta     86.30033029217988
_cell_angle_gamma    75.60077150093052

_space_group_name_H-M_alt    "P 1"
_space_group_IT_number       1

loop_
  _space_group_symop_operation_xyz
  'x, y, z'

loop_
  _atom_site_type_symbol
  _atom_site_label
  _atom_site_symmetry_multiplicity
  _atom_site_fract_x
  _atom_site_fract_y
  _atom_site_fract_z
  _atom_site_occupancy
  Er  Er1       1.0  0.2349873812501642  0.5409535034193809  0.4907961067189034  1.0000
  Er  Er2       1.0  0.765009343925925  0.4590533513226021  0.5092013485356615  1.0000
  H   H1        1.0  0.9613666838102333  0.6983548862937425  0.4733399675854599  1.0000
  H   H2        1.0  0.038623212683631884  0.3016536943879089  0.5266572037122756  1.0000
  H   H3        1.0  0.05319421099464714  0.7634780418475201  0.5101948069780917  1.0000
  H   H4        1.0  0.9467930600992815  0.2365253610151257  0.48980693212264714  1.0000
  H   H5        1.0  0.43540423793885447  0.5973434042529674  0.6009423567544088  1.0000
  H   H6        1.0  0.5645938017388233  0.4026556837605071  0.3990541906354609  1.0000
  H   H7        1.0  0.32164797066439377  0.7129416653980271  0.5519096769412711  1.0000
  H   H8        1.0  0.6783498062330722  0.2870582855852888  0.448091392457016  1.0000
  H   H9        1.0  0.2690886775728245  0.12376540765413319  0.545865800523103  1.0000
  H   H10       1.0  0.730907259863173  0.8762405841180154  0.45413402977521117  1.0000
  H   H11       1.0  0.39897692423695486  0.9852906301626021  0.31852161221479486  1.0000
  H   H12       1.0  0.6010313590645922  0.014702417062039798  0.6814867841755684  1.0000
  H   H13       1.0  0.42971027827862684  0.1784802840399067  0.20231501648571992  1.0000
  H   H14       1.0  0.5703077224858433  0.8215119002149007  0.7976912001962828  1.0000
  H   H15       1.0  0.3944382554704264  0.3400972745534148  0.2634366673760765  1.0000
  H   H16       1.0  0.6055716027107678  0.6599009504902327  0.7365637791512823  1.0000
  H   H17       1.0  0.7439835010747301  0.5689180408904946  0.23168738281437126  1.0000
  H   H18       1.0  0.2560155879221711  0.4310879508816541  0.768315055648344  1.0000
  H   H19       1.0  0.8011313968506784  0.8097815512611958  0.9409390971023441  1.0000
  H   H20       1.0  0.19886742996654763  0.1902218516014571  0.0590607840321411  1.0000
  H   H21       1.0  0.027515549435229096  0.8314438200345291  0.0018272246821028045  1.0000
  H   H22       1.0  0.97247802357942  0.16856648658679058  0.998172645922274  1.0000
  H   H23       1.0  0.11016002984552391  0.7194562246749712  0.1797742375659368  1.0000
  H   H24       1.0  0.8898319676889415  0.2805523560066803  0.8202276420293584  1.0000
  H   H25       1.0  0.7135289228889974  0.7606052152700967  0.3266794958336163  1.0000
  H   H26       1.0  0.2864612381866962  0.23939214680370918  0.6733261791529584  1.0000
  H   H27       1.0  0.5463025622389565  0.0590745999871984  0.0650886470383725  1.0000
  H   H28       1.0  0.45370151778030987  0.9409253509961175  0.9349114712214258  1.0000
  H   H29       1.0  0.31593143761295295  0.9959638410696455  0.07359770395927273  1.0000
  H   H30       1.0  0.6840739545057488  0.004042150702503  0.926396930623511  1.0000
  H   H31       1.0  0.2853696702346581  0.816499771418968  0.21277432508264843  1.0000
  H   H32       1.0  0.7146260038205908  0.1835105352023518  0.7872083250466841  1.0000
  H   H33       1.0  0.08653928112342867  0.6247107665989446  0.6825564663386031  1.0000
  H   H34       1.0  0.9134663755771018  0.3752840065653587  0.317443930836447  1.0000
  H   H35       1.0  0.0743081112854469  0.6410977007769745  0.7979264229172855  1.0000
  H   H36       1.0  0.9257051624379425  0.3588927575381646  0.20207439767222007  1.0000
  H   H37       1.0  0.9544278991093479  0.0875353451128689  0.6282436548273154  1.0000
  H   H38       1.0  0.04556882786835808  0.9124611539911099  0.3717627144796438  1.0000
  H   H39       1.0  0.39578676423757747  0.7044638497487057  0.928792373242473  1.0000
  H   H40       1.0  0.6042120637807287  0.2955326493552732  0.0712091105240305  1.0000
  H   H41       1.0  0.2582915307177487  0.7541942123732354  0.8396833121901252  1.0000
  H   H42       1.0  0.7417109744218776  0.2458005607910749  0.1603151620946619  1.0000
  H   H43       1.0  0.13743805294304678  0.3936704418487906  0.1601296197207418  1.0000
  H   H44       1.0  0.8625707553183872  0.6063243313155197  0.8398644770548388  1.0000
  C   C1        1.0  0.3251726843459578  0.2437156256721025  0.4065512536942038  1.0000
  C   C2        1.0  0.6748313956733156  0.7562843253112063  0.5934481792914497  1.0000
  C   C3        1.0  0.3059573242785305  0.13671081813412658  0.47107299632281036  1.0000
  C   C4        1.0  0.6940499073016468  0.8632891328491894  0.528928359553106  1.0000
  C   C5        1.0  0.3381299427604318  0.0451488557757642  0.4379888287491624  1.0000
  C   C6        1.0  0.6618843802821743  0.9548485062980419  0.5620158270907538  1.0000
  C   C7        1.0  0.3792210402103109  0.058758753027945  0.3413287529703624  1.0000
  C   C8        1.0  0.6207893435312998  0.9412377460760268  0.65867635502304  1.0000
  C   C9        1.0  0.3968692171070103  0.1661631155990761  0.2777151581280321  1.0000
  C   C10       1.0  0.6031430048949886  0.833834246474737  0.7222889010591869  1.0000
  C   C11       1.0  0.3743047509778564  0.2571865847810102  0.3109802546151101  1.0000
  C   C12       1.0  0.6257051072033377  0.7428116402626372  0.6890208771863868  1.0000
  C   C13       1.0  0.2956458384399312  0.3441213028894055  0.438779660243803  1.0000
  C   C14       1.0  0.7043461596950777  0.655883825912916  0.5612144547406998  1.0000
  C   C15       1.0  0.9338361382629401  0.6369519936943887  0.21567811120434047  1.0000
  C   C16       1.0  0.06615979977359389  0.3630505461984299  0.7843187514021891  1.0000
  C   C17       1.0  0.8073636995147808  0.6250887473862434  0.18183160751317468  1.0000
  C   C18       1.0  0.1926319751410048  0.3749181073557395  0.8181638362296864  1.0000
  C   C19       1.0  0.7616176218588251  0.6891849688375514  0.08363866810713466  1.0000
  C   C20       1.0  0.2383812043578644  0.3108218859044385  0.9163566427035545  1.0000
  C   C21       1.0  0.8386243271793035  0.7637843961385968  0.017776189608106573  1.0000
  C   C22       1.0  0.16137449963792957  0.2362190067240562  0.9822223209780885  1.0000
  C   C23       1.0  0.9650023848492353  0.7746949237499904  0.05234535351132057  1.0000
  C   C24       1.0  0.03499723090916259  0.2253024383238227  0.9476571815821586  1.0000
  C   C25       1.0  0.012209260328184292  0.7118741717133545  0.15089871418837222  1.0000
  C   C26       1.0  0.9877929808301572  0.2881283681794571  0.8491026794728213  1.0000
  C   C27       1.0  0.9809367326861961  0.572088592060652  0.32265328105652463  1.0000
  C   C28       1.0  0.019054739888389294  0.4279182626813379  0.6773485073965231  1.0000
  C   C29       1.0  0.4977942654756333  0.7776195285174552  0.2761271604478707  1.0000
  C   C30       1.0  0.5022000964801876  0.2223847373150321  0.7238637144550493  1.0000
  C   C31       1.0  0.6268673177370943  0.8118362824359764  0.2713279599010221  1.0000
  C   C32       1.0  0.37312756977914313  0.1881662574568423  0.7286696322903763  1.0000
  C   C33       1.0  0.6404373434218795  0.9133828057738355  0.19486680686814847  1.0000
  C   C34       1.0  0.3595641105969065  0.0866154192698119  0.8051333088708643  1.0000
  C   C35       1.0  0.5308871372704828  0.9804416026652945  0.12313333889359508  1.0000
  C   C36       1.0  0.4691193065696027  0.0195574853481801  0.8768635392846278  1.0000
  C   C37       1.0  0.4026187117504846  0.94512801408775  0.12908168747095053  1.0000
  C   C38       1.0  0.597385630448457  0.054874525805068686  0.8709148206497872  1.0000
  C   C39       1.0  0.38554788786294825  0.8447421851766349  0.2056471072145811  1.0000
  C   C40       1.0  0.6144488379136775  0.155261217686018  0.7943453245257713  1.0000
  C   C41       1.0  0.47705743544025847  0.6694151929102006  0.357398206708595  1.0000
  C   C42       1.0  0.5229400780764593  0.3305890729222867  0.6425966469070159  1.0000
  C   C43       1.0  0.0002876062477100183  0.9629664635265838  0.5518980677446167  1.0000
  C   C44       1.0  0.9997162115918954  0.0370308985472292  0.4481029195576766  1.0000
  C   C45       1.0  0.9769641631686241  0.0001095971689224  0.6297170450384115  1.0000
  C   C46       1.0  0.02304175571157434  0.9998877649048905  0.37028590946486867  1.0000
  C   C47       1.0  0.027738096352784753  0.7901144687440931  0.6753165099353992  1.0000
  C   C48       1.0  0.9722646715670538  0.20987944145038273  0.32468566563069595  1.0000
  C   C49       1.0  0.06716073891675475  0.5136879715138178  0.007011733776138786  1.0000
  C   C50       1.0  0.9328409784827798  0.4863059386806583  0.9929898008265425  1.0000
  C   C51       1.0  0.15358038860951242  0.4613678364174233  0.09162418788700678  1.0000
  C   C52       1.0  0.846424480350933  0.5386260737770527  0.9083765285093574  1.0000
  C   C53       1.0  0.23884400314351956  0.6124833470208485  0.9582311004250382  1.0000
  C   C54       1.0  0.7611640179783592  0.3875071112942904  0.04176308897664432  1.0000
  S   S1        1.0  0.9910503860911392  0.884390471230418  0.7403445033656054  1.0000
  S   S2        1.0  0.008955796169807706  0.11560257599422388  0.259658499453053  1.0000
  S   S3        1.0  0.30011661355901254  0.5206089895825841  0.07938221783432914  1.0000
  S   S4        1.0  0.699888255401433  0.4793849206118921  0.9206150721913176  1.0000
  N   N1        1.0  0.3321922964670421  0.9303746818055032  0.5077044011533259  1.0000
  N   N2        1.0  0.66781467293346  0.06962268026831  0.49229987958751303  1.0000
  N   N3        1.0  0.6274729063179975  0.6776919365881966  0.05018290868184052  1.0000
  N   N4        1.0  0.3725204045169761  0.3223157811236277  0.949817830965024  1.0000
  N   N5        1.0  0.7762217272860212  0.9501435947630199  0.1881841837554675  1.0000
  N   N6        1.0  0.2237818289744453  0.049847726521953496  0.8118236134614063  1.0000
  N   N7        1.0  0.02928661351445065  0.844170899146519  0.5785313358864955  1.0000
  N   N8        1.0  0.970713265024152  0.1558255999574598  0.4214701035692839  1.0000
  N   N9        1.0  0.04794906746034396  0.675322221424004  0.7227354193857847  1.0000
  N   N10       1.0  0.9520628923619937  0.3246725517403064  0.2772660824732043  1.0000
  N   N11       1.0  0.1174154750838809  0.5985351655937379  0.9311577368941427  1.0000
  N   N12       1.0  0.882588606136473  0.401457881630904  0.06883850180452808  1.0000
  N   N13       1.0  0.3131968533686447  0.6884669779356543  0.8992679144276322  1.0000
  N   N14       1.0  0.6868088033318855  0.3115277952286561  0.10072905637669288  1.0000
  O   O1        1.0  0.0591914563281293  0.7131582708263622  0.4698528207420197  1.0000
  O   O2        1.0  0.9407984407662795  0.2868468579759522  0.530146865057084  1.0000
  O   O3        1.0  0.330747502961728  0.6288331734960194  0.5834849577332051  1.0000
  O   O4        1.0  0.6692408198535701  0.3711633256079594  0.416516969140538  1.0000
  O   O5        1.0  0.3654401363715536  0.4220863125430937  0.400648373980708  1.0000
  O   O6        1.0  0.6345410925791555  0.5779265829877289  0.5993470476650059  1.0000
  O   O7        1.0  0.2001784969539386  0.3516463998419752  0.5032132079785824  1.0000
  O   O8        1.0  0.7998006321572505  0.6483595919301735  0.4967756816308722  1.0000
  O   O9        1.0  0.31277597439748217  0.9157421653000168  0.5958893027634744  1.0000
  O   O10       1.0  0.6872267929218197  0.084255196773789  0.4041137846719706  1.0000
  O   O11       1.0  0.3501594215337036  0.8514371051488893  0.4744969229442972  1.0000
  O   O12       1.0  0.6498412441444542  0.1485637088042608  0.5255037386112278  1.0000
  O   O13       1.0  0.09186475215313543  0.5877851503714666  0.3527092910748593  1.0000
  O   O14       1.0  0.9081259332819017  0.41221738952134496  0.6472953311008707  1.0000
  O   O15       1.0  0.9039412811950244  0.5052627970243719  0.37614168105368145  1.0000
  O   O16       1.0  0.09603732235574822  0.4947449206874523  0.6238507703794554  1.0000
  O   O17       1.0  0.5707776154202477  0.6008375691108796  0.10529296718377879  1.0000
  O   O18       1.0  0.42922016027613796  0.3991692856311033  0.894708555404925  1.0000
  O   O19       1.0  0.5742527483788109  0.7471998418685786  0.9669795751999358  1.0000
  O   O20       1.0  0.4257358348145388  0.2528096017829071  0.03302284769108611  1.0000
  O   O21       1.0  0.34743897682806585  0.6619323814794953  0.37418880790995956  1.0000
  O   O22       1.0  0.6525687815136081  0.3380589398054781  0.6258263500795989  1.0000
  O   O23       1.0  0.588034133190952  0.5939596995338121  0.4028548018320065  1.0000
  O   O24       1.0  0.4119654801652857  0.406051470057342  0.597146583819864  1.0000
  O   O25       1.0  0.7906444615375889  0.0360315794794417  0.1150391309717449  1.0000
  O   O26       1.0  0.20936408454416985  0.9639606047753659  0.8849667992326289  1.0000
  O   O27       1.0  0.8696313413038654  0.8929217910094422  0.25512154415988414  1.0000
  O   O28       1.0  0.1303572454927249  0.10706694136602828  0.7448939099169108  1.0000
