data_image0
_chemical_formula_structural       Cd3H60C102N18O24
_chemical_formula_sum              "Cd3 H60 C102 N18 O24"
_cell_length_a       15.153848870783984
_cell_length_b       15.153797530037433
_cell_length_c       19.640609277013734
_cell_angle_alpha    90.00218165689861
_cell_angle_beta     89.99769283091658
_cell_angle_gamma    120.0002793425223

_space_group_name_H-M_alt    "P 1"
_space_group_IT_number       1

loop_
  _space_group_symop_operation_xyz
  'x, y, z'

loop_
  _atom_site_type_symbol
  _atom_site_label
  _atom_site_symmetry_multiplicity
  _atom_site_fract_x
  _atom_site_fract_y
  _atom_site_fract_z
  _atom_site_occupancy
  Cd  Cd1       1.0  0.13416624986016504  0.9999864734258214  0.16667039495778369  1.0000
  Cd  Cd2       1.0  0.9999874339350755  0.1341654486505135  0.8333286833941924  1.0000
  Cd  Cd3       1.0  0.8658437503947383  0.8658465922698754  0.5000000504100298  1.0000
  H   H1        1.0  0.6712110966699923  0.544207649320299  0.24303075685297418  1.0000
  H   H2        1.0  0.7180765528403513  0.45099786393457475  0.32704488796028386  1.0000
  H   H3        1.0  0.8048529700546111  0.7198081016438567  0.20608790659227336  1.0000
  H   H4        1.0  0.2637894897758528  0.9280549000185802  0.26031665346150845  1.0000
  H   H5        1.0  0.4301758594027732  0.9280583484728953  0.26538518929357474  1.0000
  H   H6        1.0  0.012285035153752193  0.10159970458594364  0.9917052648205809  1.0000
  H   H7        1.0  0.9129408900561913  0.06017949195672413  0.09899327765673858  1.0000
  H   H8        1.0  0.664031762630721  0.04552194336537242  0.9817205709267041  1.0000
  H   H9        1.0  0.7751432424827271  0.08625007224035394  0.8774864218711326  1.0000
  H   H10       1.0  0.3878850059830869  0.8461559183944306  0.5694607485915454  1.0000
  H   H11       1.0  0.4557832818248003  0.1270096649266179  0.9096503641170981  1.0000
  H   H12       1.0  0.5489981474412815  0.26707676851887635  0.9936728084231629  1.0000
  H   H13       1.0  0.28017070390156124  0.08504246593095392  0.8727279634955278  1.0000
  H   H14       1.0  0.07194337048699856  0.33573327133996145  0.92694044376379  1.0000
  H   H15       1.0  0.0719852304159971  0.5021351490590008  0.9320063812354816  1.0000
  H   H16       1.0  0.8984085088152867  0.9107037990013469  0.658378182695017  1.0000
  H   H17       1.0  0.9398248515459074  0.8527707812710973  0.765661544358714  1.0000
  H   H18       1.0  0.9544761108340649  0.618520696003813  0.6483590627791995  1.0000
  H   H19       1.0  0.9137544446359982  0.6889135600881745  0.5441353511122528  1.0000
  H   H20       1.0  0.15385098811081113  0.5417460323197504  0.23608786939755788  1.0000
  H   H21       1.0  0.8729508996300838  0.32878703266361253  0.5763420074213454  1.0000
  H   H22       1.0  0.7328818152737853  0.2819098425299346  0.6603739866162426  1.0000
  H   H23       1.0  0.9149170338513245  0.19514546616824208  0.5393939952899699  1.0000
  H   H24       1.0  0.6642807764395613  0.7361979992392805  0.5936419590324745  1.0000
  H   H25       1.0  0.4978970743133714  0.5698140926186497  0.598713225451135  1.0000
  H   H26       1.0  0.08929565714524301  0.9877105108192483  0.3250443092214112  1.0000
  H   H27       1.0  0.1472412662269917  0.0870661595219744  0.4323277368669806  1.0000
  H   H28       1.0  0.3814667098346122  0.3359647839703897  0.31503047717950483  1.0000
  H   H29       1.0  0.3110734020450111  0.2248442133815232  0.21080506449844447  1.0000
  H   H30       1.0  0.4582744388547013  0.6121166653762701  0.9028124650363052  1.0000
  H   H31       1.0  0.5442064384347916  0.6712090696031013  0.7569687619706186  1.0000
  H   H32       1.0  0.45099696274286316  0.7180716828379019  0.6729541608418329  1.0000
  H   H33       1.0  0.7198027908456055  0.8048505894332294  0.7939113508906457  1.0000
  H   H34       1.0  0.9280532404441788  0.26378924671742254  0.7396823761733059  1.0000
  H   H35       1.0  0.9280614195387858  0.43017996076596204  0.7346126813856484  1.0000
  H   H36       1.0  0.1015915578261044  0.012283490151652605  0.0082936577856287  1.0000
  H   H37       1.0  0.06017501932360168  0.9129396258859404  0.9010054277427598  1.0000
  H   H38       1.0  0.04552128336196407  0.6640314299789128  0.0182814121123371  1.0000
  H   H39       1.0  0.08625040110429456  0.7751457655333314  0.12251339624943819  1.0000
  H   H40       1.0  0.846153351277863  0.3878809026853745  0.430536717884756  1.0000
  H   H41       1.0  0.1270159079539609  0.4557842320450973  0.09035223513208729  1.0000
  H   H42       1.0  0.26708376671361844  0.5490011416664589  0.006329084504386599  1.0000
  H   H43       1.0  0.08504641738783651  0.28016887103952126  0.12727176477120136  1.0000
  H   H44       1.0  0.33573762415665  0.07194889276397022  0.07305924871103998  1.0000
  H   H45       1.0  0.502137927920927  0.07198726868931966  0.0679931705194221  1.0000
  H   H46       1.0  0.9107012028904651  0.8984079613994428  0.34162236177652966  1.0000
  H   H47       1.0  0.8527675251508386  0.9398236068507093  0.2343400323725574  1.0000
  H   H48       1.0  0.6185178172171888  0.9544755094442863  0.35164117213272306  1.0000
  H   H49       1.0  0.6889122340730295  0.9137562250196327  0.4558648587298108  1.0000
  H   H50       1.0  0.541743616815296  0.15385191637712137  0.7639141254848169  1.0000
  H   H51       1.0  0.32878667282997753  0.8729527406975708  0.4236585413085335  1.0000
  H   H52       1.0  0.2819099975958608  0.7328829870381101  0.339626720119483  1.0000
  H   H53       1.0  0.1951466387096587  0.9149209623377743  0.46060968583410755  1.0000
  H   H54       1.0  0.7362012411188347  0.6642828581022613  0.4063568942038173  1.0000
  H   H55       1.0  0.5698184866810369  0.4978980325827395  0.4012843815881196  1.0000
  H   H56       1.0  0.987712813833177  0.08929683134678609  0.6749543082949498  1.0000
  H   H57       1.0  0.08706921128252533  0.1472382379990053  0.5676715929002254  1.0000
  H   H58       1.0  0.3359660434181961  0.3814660283517384  0.6849679351212926  1.0000
  H   H59       1.0  0.22484295505313412  0.3110736027790396  0.7891940104354658  1.0000
  H   H60       1.0  0.6121159818828871  0.4582710876299316  0.09718615805157067  1.0000
  C   C1        1.0  0.7483877246032763  0.5794385725736008  0.26352281926834553  1.0000
  C   C2        1.0  0.77429016168513  0.5274524411946262  0.3105690711174133  1.0000
  C   C3        1.0  0.8723457383411033  0.5736103287162779  0.3390087879980114  1.0000
  C   C4        1.0  0.9476763290405119  0.6722670670982043  0.31822508924579296  1.0000
  C   C5        1.0  0.9215890942212468  0.7225374800926334  0.26850781844634497  1.0000
  C   C6        1.0  0.8220170857776241  0.6768718543071731  0.24307822233769363  1.0000
  C   C7        1.0  0.8938712619318493  0.5187989222271058  0.3932977133973806  1.0000
  C   C8        1.0  0.9989375993408913  0.8233680301824507  0.23841534592364869  1.0000
  C   C9        1.0  0.319911303688535  0.9606780984229389  0.21952322823102577  1.0000
  C   C10       1.0  0.41123265307800955  0.9598923811782856  0.22186795453789893  1.0000
  C   C11       1.0  0.9344230610345079  0.08742199013870067  0.9914422371606404  1.0000
  C   C12       1.0  0.8785122002134643  0.0643360912384454  0.05139555502912428  1.0000
  C   C13       1.0  0.7793921739030553  0.04857930268160264  0.048425471411114494  1.0000
  C   C14       1.0  0.7407824436315735  0.0571200658823229  0.9854225888944014  1.0000
  C   C15       1.0  0.8017986731917547  0.07958942418063952  0.9278743661137553  1.0000
  C   C16       1.0  0.7170439725276623  0.023032429106173476  0.11099591708024548  1.0000
  C   C17       1.0  0.42055427026157594  0.16895140556322735  0.9301559854775402  1.0000
  C   C18       1.0  0.4725491167670414  0.2468516747399435  0.9771955968227883  1.0000
  C   C19       1.0  0.4263862247376054  0.2987310907095734  0.005658990057320099  1.0000
  C   C20       1.0  0.32772167811201297  0.2753996210305161  0.9848848965710103  1.0000
  C   C21       1.0  0.27745106452339746  0.19904824118863482  0.9351605375892688  1.0000
  C   C22       1.0  0.3231193016464786  0.14514547849088197  0.9097188855545253  1.0000
  C   C23       1.0  0.4811999195680201  0.3750583715864836  0.059943727123069786  1.0000
  C   C24       1.0  0.17662144423204038  0.17556582066782064  0.9050679903226564  1.0000
  C   C25       1.0  0.039334902902403754  0.35923143420568965  0.886138591560815  1.0000
  C   C26       1.0  0.040149996829413254  0.4513546380783496  0.8884896584482147  1.0000
  C   C27       1.0  0.9125840825125026  0.847018135082074  0.6581087029117965  1.0000
  C   C28       1.0  0.9356692176434008  0.81418852350523  0.7180586481487976  1.0000
  C   C29       1.0  0.9514360318051232  0.7308315525931378  0.7150720340213538  1.0000
  C   C30       1.0  0.9428795985060249  0.6836738056936582  0.6520703724388851  1.0000
  C   C31       1.0  0.9204097130936688  0.7222179604988455  0.594528777343882  1.0000
  C   C32       1.0  0.9769739690288475  0.6940168166360651  0.7776358542756298  1.0000
  C   C33       1.0  0.8310125937006276  0.25161280255183266  0.5968398699381011  1.0000
  C   C34       1.0  0.7531256252474564  0.22569850735638403  0.6438942309807628  1.0000
  C   C35       1.0  0.701244099938535  0.12764604190671502  0.6723438327386971  1.0000
  C   C36       1.0  0.7245812318753693  0.052322854225615036  0.6515588913373519  1.0000
  C   C37       1.0  0.8009343408894267  0.0784169028177644  0.6018289779044678  1.0000
  C   C38       1.0  0.8548225486924325  0.1779839140304914  0.5763914937227098  1.0000
  C   C39       1.0  0.6249276977969559  0.10612800566497785  0.7266444451037372  1.0000
  C   C40       1.0  0.8244492945236814  0.0010919426280153147  0.5717342116092253  1.0000
  C   C41       1.0  0.6407785284586538  0.6800843643231219  0.5528428663184569  1.0000
  C   C42       1.0  0.5486675155790693  0.5887702600323552  0.5551875878592722  1.0000
  C   C43       1.0  0.1529806133206293  0.06557383865853693  0.32477516864260275  1.0000
  C   C44       1.0  0.18581693130875723  0.12148900383058965  0.384726268492038  1.0000
  C   C45       1.0  0.2691698713958246  0.22061361920249575  0.3817468892376538  1.0000
  C   C46       1.0  0.3163121333598654  0.2592165676094709  0.31874053162093213  1.0000
  C   C47       1.0  0.27776735096434635  0.1981980233845348  0.2611967028018327  1.0000
  C   C48       1.0  0.3059849042295327  0.2829672875630537  0.4443130120950442  1.0000
  C   C49       1.0  0.5794378159871201  0.7483856438086037  0.7364791502763309  1.0000
  C   C50       1.0  0.5274505128370138  0.7742860881518469  0.6894308838677431  1.0000
  C   C51       1.0  0.5736060312995691  0.8723419074074316  0.6609910451254705  1.0000
  C   C52       1.0  0.6722615710744435  0.9476747404602011  0.6817766334564083  1.0000
  C   C53       1.0  0.7225346796212191  0.9215879698072345  0.7314923563314152  1.0000
  C   C54       1.0  0.6768692419052798  0.8220165834350937  0.7569230935124833  1.0000
  C   C55       1.0  0.5188000007146059  0.8938681598047967  0.6067016386401888  1.0000
  C   C56       1.0  0.8233655234194189  0.9989371710530011  0.7615846782469048  1.0000
  C   C57       1.0  0.9606781053228277  0.319910641580407  0.7804757263564567  1.0000
  C   C58       1.0  0.9598949652830271  0.41123401063465076  0.7781299052120331  1.0000
  C   C59       1.0  0.08741761571395318  0.9344227671206867  0.008556936214333196  1.0000
  C   C60       1.0  0.06433412862625677  0.878511853728213  0.9486031759334846  1.0000
  C   C61       1.0  0.04857717887889394  0.7793914068466281  0.9515753932486742  1.0000
  C   C62       1.0  0.05711877538368518  0.7407832039908655  0.014579319490231099  1.0000
  C   C63       1.0  0.07958620378574473  0.8017999781262973  0.07212645344110058  1.0000
  C   C64       1.0  0.023027715796828992  0.7170419414372234  0.8890055310471963  1.0000
  C   C65       1.0  0.16895421305249406  0.42055560992390184  0.06984355326159887  1.0000
  C   C66       1.0  0.24685788496994832  0.4725511046185816  0.022804341223135793  1.0000
  C   C67       1.0  0.2987365650176628  0.42638672762465296  0.9943419614444265  1.0000
  C   C68       1.0  0.2754013354874374  0.32772043153543967  0.015115139787113197  1.0000
  C   C69       1.0  0.1990480661746119  0.2774476424272834  0.06483756920177089  1.0000
  C   C70       1.0  0.14514661880534163  0.3231164142980846  0.09027922818447108  1.0000
  C   C71       1.0  0.3750644389167875  0.4812013116602716  0.9400571135304571  1.0000
  C   C72       1.0  0.17556345890476877  0.17661555450305852  0.09492665750153859  1.0000
  C   C73       1.0  0.3592321918976396  0.03933680943652018  0.11386009031924257  1.0000
  C   C74       1.0  0.45135602902340116  0.04015198453295459  0.11150894486342366  1.0000
  C   C75       1.0  0.8470142592246932  0.9125813815083607  0.34189086509996963  1.0000
  C   C76       1.0  0.8141866169580182  0.9356692260008473  0.28194296470581287  1.0000
  C   C77       1.0  0.730829389864276  0.9514356312765103  0.28492810851693656  1.0000
  C   C78       1.0  0.6836723177019978  0.9428797469201557  0.34793083548994724  1.0000
  C   C79       1.0  0.7222175061875475  0.9204094074876751  0.4054713986764184  1.0000
  C   C80       1.0  0.6940156133155854  0.9769760264314942  0.22236480696524544  1.0000
  C   C81       1.0  0.25161303368931  0.8310155187455809  0.40316179778145766  1.0000
  C   C82       1.0  0.22569863634889495  0.7531259277884389  0.35610854274224113  1.0000
  C   C83       1.0  0.12764459765491407  0.7012424906919961  0.32766161346414435  1.0000
  C   C84       1.0  0.052322580717259315  0.7245829618539262  0.34844456224299586  1.0000
  C   C85       1.0  0.07841661750116925  0.8009401003323834  0.39817337083952953  1.0000
  C   C86       1.0  0.17798419458437545  0.8548246486862539  0.4236112343937036  1.0000
  C   C87       1.0  0.10612775608060322  0.6249301100855362  0.27335751979391176  1.0000
  C   C88       1.0  0.0010913143828476916  0.824454589541894  0.42826920091665227  1.0000
  C   C89       1.0  0.6800863709873044  0.6407791950736765  0.44715554506552724  1.0000
  C   C90       1.0  0.5887725798838588  0.5486665571102877  0.44480996024488206  1.0000
  C   C91       1.0  0.06557468812776794  0.15298068110357832  0.6752236653711065  1.0000
  C   C92       1.0  0.12149004920495086  0.1858143475496519  0.6152740179064223  1.0000
  C   C93       1.0  0.22061505651331706  0.2691680917164804  0.6182537520693571  1.0000
  C   C94       1.0  0.25921831600430784  0.3163123823583903  0.6812590189332325  1.0000
  C   C95       1.0  0.19819809621622403  0.27776646150121564  0.7388024227723162  1.0000
  C   C96       1.0  0.28296956804359763  0.305981143732673  0.555687036194257  1.0000
  C   C97       1.0  0.5759291785114797  1.7894137940307897e-05  0.16668189268389708  1.0000
  C   C98       1.0  0.47838332903059927  2.1281021126608067e-05  0.16668442944706638  1.0000
  C   C99       1.0  1.9927325183851493e-05  0.5759304752340102  0.8333176575276153  1.0000
  C   C100      1.0  2.2052962137322547e-05  0.4783839061906506  0.8333152032250978  1.0000
  C   C101      1.0  0.42408288409276207  0.4240801563009812  0.49999940544549293  1.0000
  C   C102      1.0  0.52163046528333  0.5216287197542613  0.499998304705663  1.0000
  N   N1        1.0  0.8969561565748095  0.09418396382838536  0.9309677084043029  1.0000
  N   N2        1.0  0.6290709014452105  0.024236581439765686  0.10822651440160767  1.0000
  N   N3        1.0  0.9058303195638547  0.8027931731399536  0.5976293814529255  1.0000
  N   N4        1.0  0.975779643097553  0.6048411968435373  0.7748632611658549  1.0000
  N   N5        1.0  0.19720391505774873  0.10303866703997504  0.26429574706244807  1.0000
  N   N6        1.0  0.39515867149125233  0.3709456064250248  0.4415400927143337  1.0000
  N   N7        1.0  0.09417986037113488  0.8969575882542107  0.0690314909464149  1.0000
  N   N8        1.0  0.02423647959916066  0.6290702378878097  0.8917739887206861  1.0000
  N   N9        1.0  0.802792228609086  0.9058311967951487  0.4023717571051931  1.0000
  N   N10       1.0  0.6048395490635841  0.9757787659811543  0.22513747642750556  1.0000
  N   N11       1.0  0.10303889448393021  0.19720430729258007  0.7357030179156039  1.0000
  N   N12       1.0  0.3709479619653706  0.3951561481037019  0.558458787548865  1.0000
  N   N13       1.0  0.294678503017025  0.9999935820725202  0.16668775331972796  1.0000
  N   N14       1.0  0.7527936179338753  1.3826879909007484e-06  0.16667913933947176  1.0000
  N   N15       1.0  0.9999911225890656  0.2946769303150276  0.8333116985379687  1.0000
  N   N16       1.0  0.9999983972672054  0.7527925161627069  0.8333220063323024  1.0000
  N   N17       1.0  0.705315651455692  0.705315082799736  0.4999991677541826  1.0000
  N   N18       1.0  0.247211357892752  0.24720975462629732  0.5000000641188578  1.0000
  O   O1        1.0  0.09189168521586323  0.8463750732064103  0.23708666831284114  1.0000
  O   O2        1.0  0.9620276390791958  0.5568271956562327  0.43573937832108095  1.0000
  O   O3        1.0  0.8261839815805913  0.4158947515486133  0.39248974159823996  1.0000
  O   O4        1.0  0.9675467053655782  0.8805799518444319  0.21314302088993736  1.0000
  O   O5        1.0  0.1536209199564311  0.24551607006129225  0.9037343889458211  1.0000
  O   O6        1.0  0.443168332638976  0.40519235865664893  0.10240220325074738  1.0000
  O   O7        1.0  0.5841064470620054  0.4102915974194162  0.059135642485109885  1.0000
  O   O8        1.0  0.1193992228441019  0.08695488652654863  0.8798030854284632  1.0000
  O   O9        1.0  0.7545242329595112  0.9081234960270309  0.5704238462222617  1.0000
  O   O10       1.0  0.5947936235396015  0.037956190435195956  0.7690901498679209  1.0000
  O   O11       1.0  0.5897278559076398  0.17382970466940859  0.7258644456757039  1.0000
  O   O12       1.0  0.9130429457788765  0.03250931481612447  0.5464367274448135  1.0000
  O   O13       1.0  0.8463732262400968  0.09189220611861508  0.7629151214285129  1.0000
  O   O14       1.0  0.5568330982150728  0.9620280768284887  0.564258356489212  1.0000
  O   O15       1.0  0.41589621448638764  0.8261846884857748  0.6075077180918668  1.0000
  O   O16       1.0  0.8805767650820685  0.9675448933902903  0.7868564722954188  1.0000
  O   O17       1.0  0.24550843846564166  0.15360910420918836  0.09625360024778469  1.0000
  O   O18       1.0  0.4052035289170774  0.4431709999574025  0.8976001714653915  1.0000
  O   O19       1.0  0.41029149047544444  0.5841065486160563  0.9408604991348779  1.0000
  O   O20       1.0  0.08695543832405409  0.11939972743786602  0.12019728635665666  1.0000
  O   O21       1.0  0.9081241941720537  0.754528173040761  0.42957834951655366  1.0000
  O   O22       1.0  0.037959321829674784  0.5947984328049359  0.23091189810931917  1.0000
  O   O23       1.0  0.1738278497650612  0.5897272123746549  0.27413952832517197  1.0000
  O   O24       1.0  0.032506591161599374  0.9130479404170019  0.4535670928143815  1.0000
