data_image0
_chemical_formula_structural       Zn2H16C52N6Cl16O24
_chemical_formula_sum              "Zn2 H16 C52 N6 Cl16 O24"
_cell_length_a       18.589223509578698
_cell_length_b       18.986361826461202
_cell_length_c       19.19934411999041
_cell_angle_alpha    90.94616796263078
_cell_angle_beta     90.18505668117099
_cell_angle_gamma    91.60733970223694

_space_group_name_H-M_alt    "P 1"
_space_group_IT_number       1

loop_
  _space_group_symop_operation_xyz
  'x, y, z'

loop_
  _atom_site_type_symbol
  _atom_site_label
  _atom_site_symmetry_multiplicity
  _atom_site_fract_x
  _atom_site_fract_y
  _atom_site_fract_z
  _atom_site_occupancy
  Zn  Zn1       1.0  0.5833849111725229  0.5008810938618352  0.49368461291294363  1.0000
  Zn  Zn2       1.0  0.4215418932859052  0.5012154030880396  0.49046420583724176  1.0000
  H   H1        1.0  0.6186632997226057  0.5349271836031235  0.3239611156896842  1.0000
  H   H2        1.0  0.38507507643827676  0.44785333989179316  0.6515921560387881  1.0000
  H   H3        1.0  0.6144436351093034  0.5107353589034958  0.6631952419941458  1.0000
  H   H4        1.0  0.34716979909954665  0.42448606893477586  0.2561823108507824  1.0000
  H   H5        1.0  0.7246671215340471  0.38160244044475183  0.5990192443430473  1.0000
  H   H6        1.0  0.3548083772962229  0.3897319870537429  0.43650485051030335  1.0000
  H   H7        1.0  0.7316658113230191  0.6205444924513017  0.3936505192083431  1.0000
  H   H8        1.0  0.3633748976920402  0.6109561016995855  0.5519381193192175  1.0000
  H   H9        1.0  0.8738238595140828  0.4195485079220234  0.603721595267409  1.0000
  H   H10       1.0  0.1967896863785725  0.3611478272819042  0.4112018541425258  1.0000
  H   H11       1.0  0.8789334941817446  0.583600469712245  0.3917377782521784  1.0000
  H   H12       1.0  0.20648625871692164  0.6377049605633116  0.5853788918840551  1.0000
  H   H13       1.0  0.9022487836405305  0.472206590692167  0.36019806051927367  1.0000
  H   H14       1.0  0.0424162929042708  0.48516105770757173  0.6590185418851819  1.0000
  H   H15       1.0  0.9036733267903615  0.5303931822113839  0.6353614898722385  1.0000
  H   H16       1.0  0.04322207393847321  0.5160872933937386  0.33785301967333237  1.0000
  C   C1        1.0  0.5064137297697613  0.6350989378121595  0.5233324202340981  1.0000
  C   C2        1.0  0.4936886392419951  0.3649355544260402  0.48439967989069305  1.0000
  C   C3        1.0  0.4906503899016811  0.1447118116549078  0.5461138894191964  1.0000
  C   C4        1.0  0.516472896943121  0.8555365622113981  0.5822673934736572  1.0000
  C   C5        1.0  0.48694922479595  0.28724573614991306  0.4978619684784392  1.0000
  C   C6        1.0  0.5085543383542513  0.7119138667092815  0.5446402341375675  1.0000
  C   C7        1.0  0.5742131699519604  0.0477646312098514  0.5806966960512485  1.0000
  C   C8        1.0  0.4584481870410428  0.9660640676795752  0.6258475558054786  1.0000
  C   C9        1.0  0.5796506496034439  0.9746958226560022  0.5848188864487869  1.0000
  C   C10       1.0  0.4550818780374187  0.0400804957501961  0.6254769246721497  1.0000
  C   C11       1.0  0.5182879293014865  0.9320947499648186  0.598623857153875  1.0000
  C   C12       1.0  0.5047787893227779  0.0797365547626327  0.5831189562057376  1.0000
  C   C13       1.0  0.7301485817928751  0.455462928153672  0.535382341535609  1.0000
  C   C14       1.0  0.2724307026395039  0.4488632674091376  0.46174410918617786  1.0000
  C   C15       1.0  0.7329874619306267  0.5466072688062624  0.4575239030761011  1.0000
  C   C16       1.0  0.276426497682941  0.5518865838895765  0.5295970243123308  1.0000
  C   C17       1.0  0.8055499204164179  0.45337606070983594  0.537101328653506  1.0000
  C   C18       1.0  0.1970101565824436  0.4466674176141225  0.46286677818633853  1.0000
  C   C19       1.0  0.8084071305829568  0.5496146936640827  0.4574489221436197  1.0000
  C   C20       1.0  0.20104097482726502  0.5529583561982535  0.5321007537915676  1.0000
  C   C21       1.0  0.8469975780589963  0.5016057367189432  0.4976532474835624  1.0000
  C   C22       1.0  0.16009490830290932  0.49966681240299954  0.4981023678666647  1.0000
  C   C23       1.0  0.9666683606025261  0.5055235516120009  0.4361813873806925  1.0000
  C   C24       1.0  0.0417027560630956  0.4948060360681552  0.5607373208339512  1.0000
  C   C25       1.0  0.966357548727764  0.4966453766187726  0.5600458291375219  1.0000
  C   C26       1.0  0.0420486451534359  0.5058929895670303  0.43596956394287656  1.0000
  C   C27       1.0  0.08071284648831069  0.4999413110002493  0.49844560692701384  1.0000
  C   C28       1.0  0.9266024265939025  0.5014369911031055  0.49801336449138506  1.0000
  C   C29       1.0  0.5030753984622721  0.50898481423107  0.35983911037926936  1.0000
  C   C30       1.0  0.5006220377265151  0.48291670840193746  0.6280403381985096  1.0000
  C   C31       1.0  0.5622896109768051  0.5182538036629938  0.24302082283507082  1.0000
  C   C32       1.0  0.4329252269445192  0.45681245831355016  0.7377242388752877  1.0000
  C   C33       1.0  0.5616754830669564  0.4924018438135676  0.7443117138846846  1.0000
  C   C34       1.0  0.43932605523753676  0.46901747542210614  0.24972871813386638  1.0000
  C   C35       1.0  0.5588570179708086  0.5129118878750277  0.16981941887071636  1.0000
  C   C36       1.0  0.4312991725465737  0.4537289900464854  0.8107957426186516  1.0000
  C   C37       1.0  0.5579374534083854  0.4896432957032815  0.8172314083931413  1.0000
  C   C38       1.0  0.43853701181911486  0.46190416331366885  0.17687939109051606  1.0000
  C   C39       1.0  0.49718985273180755  0.48460456793721096  0.13689463866730023  1.0000
  C   C40       1.0  0.4932036385621857  0.4707759419358696  0.8499509215959764  1.0000
  C   C41       1.0  0.5010568429467951  0.49879051799052143  0.28298208945551556  1.0000
  C   C42       1.0  0.4984394017795992  0.4766989824683918  0.7040957240650982  1.0000
  C   C43       1.0  0.49020593959119907  0.47103481817965326  0.9271117641379052  1.0000
  C   C44       1.0  0.4931837010335515  0.4782166920083952  0.05984859599153222  1.0000
  C   C45       1.0  0.429018622692027  0.25762243181918626  0.534736967321152  1.0000
  C   C46       1.0  0.5000808842071222  0.7628638157789142  0.4936803824440903  1.0000
  C   C47       1.0  0.5206898730364315  0.7321824771032581  0.614209889661119  1.0000
  C   C48       1.0  0.5380109958373397  0.2404347249240503  0.4710992982022476  1.0000
  C   C49       1.0  0.427085118036267  0.1854351075322  0.5514620316607478  1.0000
  C   C50       1.0  0.5036702534817934  0.8345610402691293  0.5125339184605766  1.0000
  C   C51       1.0  0.5255723726524907  0.8040742283682007  0.6329079952681342  1.0000
  C   C52       1.0  0.5381359490381996  0.1702215919056798  0.4919436655153291  1.0000
  N   N1        1.0  0.4565189433380183  0.5280232719309836  0.026721809945769306  1.0000
  N   N2        1.0  0.5203029313699759  0.4173138718253285  0.9604756625511828  1.0000
  N   N3        1.0  0.45510135547738867  0.5243790044560726  0.9577666056456452  1.0000
  N   N4        1.0  0.5219292473297017  0.42110223926836443  0.029527816758296403  1.0000
  N   N5        1.0  0.6943603170567343  0.5008269068734066  0.49602594038170633  1.0000
  N   N6        1.0  0.3114797905563903  0.5006829413090658  0.49478147429208263  1.0000
  Cl  Cl1       1.0  0.6314378468436673  0.5413529736387659  0.12103711505284313  1.0000
  Cl  Cl2       1.0  0.3523365232245368  0.4280240905351817  0.8510824883587844  1.0000
  Cl  Cl3       1.0  0.6335297425062193  0.5123423769538534  0.8659377805220106  1.0000
  Cl  Cl4       1.0  0.3628264149905577  0.4224821140752936  0.13800757790003365  1.0000
  Cl  Cl5       1.0  0.3583430921983108  0.3075328135382875  0.5622130212880523  1.0000
  Cl  Cl6       1.0  0.48490650592318474  0.7363752967435887  0.4087798242217532  1.0000
  Cl  Cl7       1.0  0.5297195719884229  0.6685416850303056  0.6760122291463305  1.0000
  Cl  Cl8       1.0  0.5970866174252265  0.26926230264074047  0.4082025028481767  1.0000
  Cl  Cl9       1.0  0.3434570159824375  0.1478603077284575  0.5644502878806961  1.0000
  Cl  Cl10      1.0  0.4919320532620973  0.8975297363624719  0.4504660072422909  1.0000
  Cl  Cl11      1.0  0.5434117504323268  0.8296649579778332  0.7174490915336948  1.0000
  Cl  Cl12      1.0  0.5857335349398342  0.1123061268944952  0.4411156927524545  1.0000
  Cl  Cl13      1.0  0.6519597856505398  0.099041880104096  0.583464836450247  1.0000
  Cl  Cl14      1.0  0.3879877117662574  0.9169700606058555  0.659311907683879  1.0000
  Cl  Cl15      1.0  0.6606381928301274  0.9350905978620643  0.5718085562330941  1.0000
  Cl  Cl16      1.0  0.4003749336462406  0.0791049267804596  0.6853502145593994  1.0000
  O   O1        1.0  0.5645536162737699  0.608893866809133  0.5047240879485815  1.0000
  O   O2        1.0  0.4388511455170203  0.39640796514848387  0.4610141951124335  1.0000
  O   O3        1.0  0.5535558776105988  0.39433669963791823  0.49867181596751226  1.0000
  O   O4        1.0  0.44494493597063217  0.6030208325237892  0.5257649634526659  1.0000
  O   O5        1.0  0.5650403206558962  0.5020394930671017  0.38917447740146843  1.0000
  O   O6        1.0  0.44267573386168374  0.4701672905608162  0.5924728812101848  1.0000
  O   O7        1.0  0.5603932501562667  0.5015465877671874  0.5995149446397294  1.0000
  O   O8        1.0  0.4460726262694267  0.5247335999339242  0.3914243941219909  1.0000
  O   O9        1.0  0.6237009213276111  0.5432292887568907  0.272940259041711  1.0000
  O   O10       1.0  0.3723519524398143  0.4409794160264511  0.7019659507564315  1.0000
  O   O11       1.0  0.6246991633221911  0.5108112570956038  0.7148692730079773  1.0000
  O   O12       1.0  0.38317205204052135  0.4454985091498287  0.2883914016024819  1.0000
  O   O13       1.0  0.6904865013350233  0.4104011158582779  0.573732467517658  1.0000
  O   O14       1.0  0.3028053297968825  0.3963912961646513  0.4249912482335177  1.0000
  O   O15       1.0  0.695860557045762  0.5910847753489676  0.41804108579594174  1.0000
  O   O16       1.0  0.311124116461265  0.6052287379093855  0.5643267791400818  1.0000
  O   O17       1.0  0.83222431756262  0.400239496591837  0.5764814719638239  1.0000
  O   O18       1.0  0.16030381259400883  0.3920063862767122  0.4306635339014663  1.0000
  O   O19       1.0  0.8383143307003138  0.6029138876497414  0.4185133653113128  1.0000
  O   O20       1.0  0.16813212829291047  0.6069150868307389  0.5658531670657966  1.0000
  O   O21       1.0  0.934128921981781  0.5128459075165992  0.3703868628357938  1.0000
  O   O22       1.0  0.07786078688211971  0.4871490960710076  0.6214934321683858  1.0000
  O   O23       1.0  0.9332765580856449  0.4897407878186898  0.625586793622489  1.0000
  O   O24       1.0  0.078715516694821  0.5129944304499149  0.37533507699609464  1.0000
