data_image0
_chemical_formula_structural       Cu12B6H156W6C132S18N54
_chemical_formula_sum              "Cu12 B6 H156 W6 C132 S18 N54"
_cell_length_a       12.626221703028694
_cell_length_b       23.21342255495666
_cell_length_c       23.21348569094895
_cell_angle_alpha    120.00031128197655
_cell_angle_beta     90.00024381635461
_cell_angle_gamma    89.99986777034239

_space_group_name_H-M_alt    "P 1"
_space_group_IT_number       1

loop_
  _space_group_symop_operation_xyz
  'x, y, z'

loop_
  _atom_site_type_symbol
  _atom_site_label
  _atom_site_symmetry_multiplicity
  _atom_site_fract_x
  _atom_site_fract_y
  _atom_site_fract_z
  _atom_site_occupancy
  Cu  Cu1       1.0  0.9436026599245795  0.5758362058161525  0.0357937559559645  1.0000
  Cu  Cu2       1.0  0.9435941271974644  0.4599600252546309  0.4241635472269961  1.0000
  Cu  Cu3       1.0  0.9435990573339695  0.964211107069815  0.540047330764473  1.0000
  Cu  Cu4       1.0  0.4436019254273518  0.424162971105922  0.9642072501958409  1.0000
  Cu  Cu5       1.0  0.4435954100651004  0.5400425360802217  0.5758289050883147  1.0000
  Cu  Cu6       1.0  0.4436015680160282  0.03579632144781907  0.45996093211110883  1.0000
  Cu  Cu7       1.0  0.16595196634945356  0.5945761722258425  0.044628511613112064  1.0000
  Cu  Cu8       1.0  0.16594021840700893  0.4500503199409992  0.40541566199203766  1.0000
  Cu  Cu9       1.0  0.16595397031623096  0.9553749534782839  0.549955269818035  1.0000
  Cu  Cu10      1.0  0.6659558592445763  0.40542207800335484  0.9553788649538929  1.0000
  Cu  Cu11      1.0  0.6659493910827906  0.5499498402667982  0.5945811888771357  1.0000
  Cu  Cu12      1.0  0.6659403912376193  0.04463390220482922  0.4500587327592098  1.0000
  B   B1        1.0  0.9983373833359651  0.8484584457819081  0.23912212819539017  1.0000
  B   B2        1.0  0.9983364255529281  0.39066876096221387  0.15154261170260228  1.0000
  B   B3        1.0  0.9983366397967687  0.7608763099465605  0.6093352734380415  1.0000
  B   B4        1.0  0.49833621281133844  0.1515397467961392  0.7608765317830045  1.0000
  B   B5        1.0  0.4983347945928501  0.6093328779126352  0.8484594945635135  1.0000
  B   B6        1.0  0.4983314123334353  0.239124533995117  0.39066504304047095  1.0000
  H   H1        1.0  0.987569386668959  0.90288477176248  0.2865475684060498  1.0000
  H   H2        1.0  0.9875665767057458  0.3836689287706747  0.09711668743440065  1.0000
  H   H3        1.0  0.9875702846051766  0.7134498849635945  0.6163347929546317  1.0000
  H   H4        1.0  0.4875680756695077  0.09711466582873382  0.7134498237898084  1.0000
  H   H5        1.0  0.4875677176360398  0.6163304909715779  0.9028841688911127  1.0000
  H   H6        1.0  0.4875671777393293  0.2865496680599904  0.3836642069515434  1.0000
  H   H7        1.0  0.0299637820841809  0.5920780633843635  0.9152368230494401  1.0000
  H   H8        1.0  0.029980584003865808  0.32315989316453647  0.4079202444218735  1.0000
  H   H9        1.0  0.029971843567963705  0.08475962953889404  0.6768377806900219  1.0000
  H   H10       1.0  0.5299679859511883  0.4079217509058993  0.08475836297656512  1.0000
  H   H11       1.0  0.5299725681046326  0.6768409647716072  0.592076482699646  1.0000
  H   H12       1.0  0.5299702205188979  0.9152405310478147  0.3231622284785159  1.0000
  H   H13       1.0  0.0274092568462621  0.5128581591600323  0.791274581053045  1.0000
  H   H14       1.0  0.027408564003735605  0.27841584056208296  0.4871398159552383  1.0000
  H   H15       1.0  0.0274096279037934  0.20872171260200648  0.7215840399171397  1.0000
  H   H16       1.0  0.5274125106337166  0.4871410914041193  0.20872202486281563  1.0000
  H   H17       1.0  0.5274124114699107  0.7215834766428911  0.5128558617482779  1.0000
  H   H18       1.0  0.5274137235859016  0.79127901239643  0.27841453785826775  1.0000
  H   H19       1.0  0.0450587457753926  0.3516071341550955  0.8328602849945523  1.0000
  H   H20       1.0  0.04506012640573691  0.48125117167526815  0.6483934644142052  1.0000
  H   H21       1.0  0.04505711619109582  0.167142639030459  0.518748988287058  1.0000
  H   H22       1.0  0.5450625761255026  0.6483925936216863  0.16713932732746156  1.0000
  H   H23       1.0  0.5450596114809445  0.5187478278090012  0.3516034299105398  1.0000
  H   H24       1.0  0.5450602456962843  0.8328588785356745  0.4812514189642556  1.0000
  H   H25       1.0  0.05013577608220031  0.4371371152655072  0.9543266620666769  1.0000
  H   H26       1.0  0.0501515005385045  0.5171898798782096  0.5628646513737363  1.0000
  H   H27       1.0  0.05013713715779741  0.04567489475914496  0.48280791063179845  1.0000
  H   H28       1.0  0.5501382267189214  0.5628658272626411  0.04567319254285701  1.0000
  H   H29       1.0  0.5501335902923756  0.4828096163525544  0.43713175695787493  1.0000
  H   H30       1.0  0.5501408256560154  0.9543247169044735  0.5171901054021147  1.0000
  H   H31       1.0  0.8907030890244272  0.8969927513703837  0.3775799040711405  1.0000
  H   H32       1.0  0.890701312748682  0.4805918397758475  0.10301581167696837  1.0000
  H   H33       1.0  0.8907010563750507  0.6224209321436193  0.5194148730678377  1.0000
  H   H34       1.0  0.3907018334182269  0.10300908400647303  0.6224226396040676  1.0000
  H   H35       1.0  0.39069806568799237  0.5194080058899644  0.8969887216926081  1.0000
  H   H36       1.0  0.3906951540302402  0.37757906465312635  0.48058433974205866  1.0000
  H   H37       1.0  0.7539519863453705  0.8793714633642793  0.37329895431388826  1.0000
  H   H38       1.0  0.7539486461653909  0.49393274546041976  0.12063538909528401  1.0000
  H   H39       1.0  0.7539490799418616  0.6266998675293606  0.5060738121729286  1.0000
  H   H40       1.0  0.2539483136294933  0.12062891591063624  0.6267013099186086  1.0000
  H   H41       1.0  0.2539461098005519  0.5060672518193955  0.8793669802664467  1.0000
  H   H42       1.0  0.2539448840094281  0.3732998988857475  0.49392534176727304  1.0000
  H   H43       1.0  0.80566712978883  0.9193405977827355  0.33144497454065885  1.0000
  H   H44       1.0  0.8056648466625094  0.41210853153534543  0.08066580793158093  1.0000
  H   H45       1.0  0.8056670788496093  0.6685588982103  0.5878970323237664  1.0000
  H   H46       1.0  0.305665537430329  0.0806614310668721  0.6685580573691394  1.0000
  H   H47       1.0  0.30566386053541816  0.5878909792328175  0.9193337110445298  1.0000
  H   H48       1.0  0.30566162834908545  0.3314410433449453  0.41210291743864486  1.0000
  H   H49       1.0  0.7204589501438721  0.7458536772515386  0.29088990741578136  1.0000
  H   H50       1.0  0.7204402233571586  0.545029692465647  0.25414923354250607  1.0000
  H   H51       1.0  0.7204525412266777  0.7091109028534106  0.45496406536182116  1.0000
  H   H52       1.0  0.22045218872565192  0.254145329662336  0.7091133814660678  1.0000
  H   H53       1.0  0.2204463634235623  0.45496525529300424  0.7458494987361702  1.0000
  H   H54       1.0  0.22045226160737744  0.29089170148824917  0.5450373492471811  1.0000
  H   H55       1.0  0.7831700984554432  0.6185475306346505  0.11788105830117958  1.0000
  H   H56       1.0  0.7831682129862828  0.49933392126602894  0.38145541578543163  1.0000
  H   H57       1.0  0.7831757891269008  0.8821151131239093  0.5006637772174329  1.0000
  H   H58       1.0  0.2831696949299669  0.3814521652221858  0.8821190895789995  1.0000
  H   H59       1.0  0.2831676203931083  0.5006663208105309  0.61854677058691  1.0000
  H   H60       1.0  0.2831735082878595  0.11788594173430057  0.4993367348208863  1.0000
  H   H61       1.0  0.7361642335501344  0.6275257128172314  0.1942285627697089  1.0000
  H   H62       1.0  0.7361603069971779  0.5667021552931218  0.3724770291069319  1.0000
  H   H63       1.0  0.7361679589509151  0.805768955080552  0.4332942521210866  1.0000
  H   H64       1.0  0.23616564713726265  0.3724750996289856  0.8057720922463786  1.0000
  H   H65       1.0  0.23615927766057612  0.43329748022492254  0.6275239412490022  1.0000
  H   H66       1.0  0.23616588174477476  0.19423149321908542  0.5667050439017058  1.0000
  H   H67       1.0  0.8688317444403639  0.6029833257952789  0.1688954709264934  1.0000
  H   H68       1.0  0.8688263785918197  0.5659118304549227  0.39701928026755695  1.0000
  H   H69       1.0  0.8688346744400165  0.8311008941217821  0.434086286534928  1.0000
  H   H70       1.0  0.3688300842246478  0.39701919201459657  0.8311072056286972  1.0000
  H   H71       1.0  0.3688259460377523  0.43408810263311187  0.6029808115591493  1.0000
  H   H72       1.0  0.3688311142317461  0.16890039796736298  0.5659141694543733  1.0000
  H   H73       1.0  0.8646233873954118  0.9689091641182941  0.25249802939188726  1.0000
  H   H74       1.0  0.8646208038617972  0.28359431990880785  0.031090926712991483  1.0000
  H   H75       1.0  0.8646209172580442  0.7475024134092507  0.7164099753978375  1.0000
  H   H76       1.0  0.36461786996978435  0.031090156673286667  0.7475009426905145  1.0000
  H   H77       1.0  0.36462282951800523  0.7164077676782412  0.9689113095887475  1.0000
  H   H78       1.0  0.3646211321128093  0.25249863053058874  0.2835907198306487  1.0000
  H   H79       1.0  0.9149427538953461  0.005200846075638325  0.20656397159017098  1.0000
  H   H80       1.0  0.9149398760563942  0.20136778572155833  0.9947998709604916  1.0000
  H   H81       1.0  0.9149418165865342  0.7934403278546897  0.7986370865897923  1.0000
  H   H82       1.0  0.41493826965842123  0.994799760331503  0.7934364060312117  1.0000
  H   H83       1.0  0.4149395634983719  0.798635156694246  0.0052033400894799355  1.0000
  H   H84       1.0  0.4149399989698922  0.20656249912857316  0.20136451675253397  1.0000
  H   H85       1.0  0.9992329177685948  0.9929867538892908  0.2609476042469935  1.0000
  H   H86       1.0  0.9992287070921294  0.26796632514431445  0.007014339224909283  1.0000
  H   H87       1.0  0.9992313365179444  0.7390540170554729  0.7320396627483914  1.0000
  H   H88       1.0  0.49922743617064214  0.007012979644166455  0.7390521013871235  1.0000
  H   H89       1.0  0.49923243884980917  0.7320367392533528  0.9929872049901646  1.0000
  H   H90       1.0  0.4992306014302841  0.26094787041327555  0.2679621968190061  1.0000
  H   H91       1.0  0.9498446723566332  0.9119427814359183  0.07655052483711698  1.0000
  H   H92       1.0  0.9498383784766702  0.16461173394228013  0.08805621096649219  1.0000
  H   H93       1.0  0.9498476143294212  0.923449757205475  0.83539236778725  1.0000
  H   H94       1.0  0.44984108144308277  0.08805671000426703  0.9234493184270604  1.0000
  H   H95       1.0  0.4498410393048715  0.8353901601476608  0.9119455375094814  1.0000
  H   H96       1.0  0.4498413074843342  0.0765496675937243  0.16460840369194324  1.0000
  H   H97       1.0  0.9802470483348601  0.7967660834744095  0.9693005193842976  1.0000
  H   H98       1.0  0.9802493344956531  0.1725378108511677  0.20323234049835284  1.0000
  H   H99       1.0  0.9802496987083772  0.030699385321263203  0.8274636175820119  1.0000
  H   H100      1.0  0.4802454945391119  0.20323421667257693  0.030697717914392807  1.0000
  H   H101      1.0  0.4802471683964669  0.8274632842289407  0.7967676865888363  1.0000
  H   H102      1.0  0.48024601217890267  0.9693015276857436  0.17253573000541403  1.0000
  H   H103      1.0  0.9705887587609398  0.7237260438970667  0.976257653058056  1.0000
  H   H104      1.0  0.9705933554606291  0.2525339513519214  0.27627231852761003  1.0000
  H   H105      1.0  0.9705933054263555  0.02373939140681362  0.7474660603549521  1.0000
  H   H106      1.0  0.47058842551250285  0.27627376011673727  0.023741059943617384  1.0000
  H   H107      1.0  0.4705901648447011  0.7474667630272194  0.7237297919755574  1.0000
  H   H108      1.0  0.4705894228679527  0.9762576946025947  0.2525319243580596  1.0000
  H   H109      1.0  0.09561911907893972  0.7612713727997973  0.9833280590936723  1.0000
  H   H110      1.0  0.09562130927504599  0.2220606282974132  0.23872610193002688  1.0000
  H   H111      1.0  0.09562226762555072  0.016671438584808042  0.7779427960009354  1.0000
  H   H112      1.0  0.5956171705393203  0.23872761990683955  0.01666894894735549  1.0000
  H   H113      1.0  0.5956189403674443  0.7779403850628127  0.761274916469844  1.0000
  H   H114      1.0  0.59561877402178  0.9833297568485121  0.22205890189869845  1.0000
  H   H115      1.0  0.166398239178946  0.9540959277299308  0.3352496308190708  1.0000
  H   H116      1.0  0.16640307235489624  0.3811512770432017  0.0459050256585201  1.0000
  H   H117      1.0  0.1663944159209265  0.6647456559823652  0.6188421727923481  1.0000
  H   H118      1.0  0.6663982132642587  0.04590131449072743  0.6647492774093846  1.0000
  H   H119      1.0  0.6663997161171126  0.6188451523944777  0.9540955569262406  1.0000
  H   H120      1.0  0.6663980765009399  0.33524684758068457  0.38115199678237116  1.0000
  H   H121      1.0  0.2412355923233847  0.9261644667456822  0.3811671759839185  1.0000
  H   H122      1.0  0.241240931844267  0.4549992477547562  0.07383406062083957  1.0000
  H   H123      1.0  0.24123054694407392  0.6188295798427745  0.5449928118050733  1.0000
  H   H124      1.0  0.7412350892375842  0.07383423987701594  0.6188338724268546  1.0000
  H   H125      1.0  0.7412376697376928  0.5449957638568393  0.9261637902210251  1.0000
  H   H126      1.0  0.7412322145699193  0.3811648367588206  0.45500046460058735  1.0000
  H   H127      1.0  0.10126736066199984  0.9198389571583477  0.3792765617437792  1.0000
  H   H128      1.0  0.10127191752050628  0.4594350568380676  0.08015742672974818  1.0000
  H   H129      1.0  0.10126307995275143  0.62072129820357  0.5405575980083341  1.0000
  H   H130      1.0  0.60126922159629  0.0801604477287654  0.6207243539251406  1.0000
  H   H131      1.0  0.6012686247353544  0.5405601734595252  0.9198373246577416  1.0000
  H   H132      1.0  0.6012671662554396  0.37927462944489326  0.45943387130808583  1.0000
  H   H133      1.0  0.3323150379673764  0.8064166468766273  0.301629614034759  1.0000
  H   H134      1.0  0.3323168580502767  0.49521346019190565  0.1935837495840999  1.0000
  H   H135      1.0  0.332308932681002  0.6983662511107199  0.5047830793639462  1.0000
  H   H136      1.0  0.832313857982456  0.19358242953185123  0.6983695340967627  1.0000
  H   H137      1.0  0.8323152059084578  0.5047891957945582  0.8064169884184833  1.0000
  H   H138      1.0  0.8323104592355651  0.3016282020728981  0.49521293781792497  1.0000
  H   H139      1.0  0.25438579310672077  0.6397077561120597  0.1724412823029482  1.0000
  H   H140      1.0  0.25438279373820905  0.5327337896329638  0.36029292483024017  1.0000
  H   H141      1.0  0.254387340134862  0.8275580256870684  0.46726566793667246  1.0000
  H   H142      1.0  0.7543888777058214  0.3602914461753955  0.8275592982642974  1.0000
  H   H143      1.0  0.7543895010599543  0.46726819729944685  0.6397074558177848  1.0000
  H   H144      1.0  0.7543897066860623  0.17243938681112791  0.5327341176994976  1.0000
  H   H145      1.0  0.36989621447929016  0.6898372196759013  0.20340844885713938  1.0000
  H   H146      1.0  0.3698954207233528  0.5135735038102993  0.3101665474791415  1.0000
  H   H147      1.0  0.36989471893678433  0.7965881940092743  0.4864276222918275  1.0000
  H   H148      1.0  0.8698961010884432  0.31016067476567627  0.7965910991550443  1.0000
  H   H149      1.0  0.8698968948552379  0.48643153193848576  0.689839644401246  1.0000
  H   H150      1.0  0.8698936366173413  0.20340926964548345  0.5135714949296073  1.0000
  H   H151      1.0  0.31391641450545654  0.6722232342702839  0.1256894441477172  1.0000
  H   H152      1.0  0.3139160833038872  0.4534677760881323  0.327779205616224  1.0000
  H   H153      1.0  0.3139160480261012  0.8743078517528035  0.5465347082117445  1.0000
  H   H154      1.0  0.8139168341871825  0.3277738061015187  0.8743091163820295  1.0000
  H   H155      1.0  0.8139171654003903  0.5465368363779533  0.6722264295680274  1.0000
  H   H156      1.0  0.8139179926796914  0.12568966819762306  0.453466819026957  1.0000
  W   W1        1.0  0.031210964526827912  0.6944924735339554  0.10354064696084458  1.0000
  W   W2        1.0  0.031208397919321805  0.40904900006817274  0.3055040887585463  1.0000
  W   W3        1.0  0.0312132345159455  0.8964571657001913  0.5909519171175717  1.0000
  W   W4        1.0  0.5312148196145331  0.3055058304564042  0.8964594982786023  1.0000
  W   W5        1.0  0.5312086741855353  0.5909501167053293  0.6944943821219308  1.0000
  W   W6        1.0  0.5312070056007698  0.10354392293534433  0.40904802819908775  1.0000
  C   C1        1.0  0.773729973801075  0.46811153764591057  0.9865588861635429  1.0000
  C   C2        1.0  0.773721754012904  0.5184369448202091  0.5318932961389817  1.0000
  C   C3        1.0  0.7737115376733569  0.013453603477806728  0.48156723444806454  1.0000
  C   C4        1.0  0.2737173903777261  0.5318821415513851  0.013444673650120377  1.0000
  C   C5        1.0  0.2737097700920827  0.48156046508705697  0.46810653296824256  1.0000
  C   C6        1.0  0.2737199864464941  0.9865564325363253  0.5184432310389298  1.0000
  C   C7        1.0  0.033246665013791706  0.5381887366633579  0.8943294322510551  1.0000
  C   C8        1.0  0.0332556554946422  0.35613906164427084  0.4618091584568162  1.0000
  C   C9        1.0  0.0332450170191407  0.10567187441584046  0.6438593506525548  1.0000
  C   C10       1.0  0.5332476363066547  0.46181081062393764  0.10566947400100447  1.0000
  C   C11       1.0  0.5332457738361073  0.6438609342787984  0.538186714456337  1.0000
  C   C12       1.0  0.5332469082921634  0.8943290318736317  0.3561399197442794  1.0000
  C   C13       1.0  0.030845139067217506  0.4944193978381153  0.8260848185493755  1.0000
  C   C14       1.0  0.030845814554176308  0.33166436451080034  0.5055768801374682  1.0000
  C   C15       1.0  0.030842824523759308  0.17391350820873444  0.6683343293422509  1.0000
  C   C16       1.0  0.530848042686209  0.505581144626703  0.1739130874530161  1.0000
  C   C17       1.0  0.5308457831857964  0.6683358804485878  0.4944187386539482  1.0000
  C   C18       1.0  0.5308471892231169  0.8260858573274277  0.3316638920079952  1.0000
  C   C19       1.0  0.033120615981680104  0.4257439309864924  0.8026105841664942  1.0000
  C   C20       1.0  0.03312141075617351  0.376864664650263  0.5742541183247807  1.0000
  C   C21       1.0  0.0331164375375508  0.197389154042135  0.6231342999209629  1.0000
  C   C22       1.0  0.533126580540099  0.5742546881024282  0.19738838844651235  1.0000
  C   C23       1.0  0.5331226177470257  0.6231336569333409  0.425742567075467  1.0000
  C   C24       1.0  0.533123630960354  0.8026090342601933  0.3768642418977279  1.0000
  C   C25       1.0  0.04077475650322531  0.4043962724983246  0.8493098623762234  1.0000
  C   C26       1.0  0.040776847036418915  0.44491531296267794  0.5956013204629399  1.0000
  C   C27       1.0  0.0407693911467106  0.15068729081600923  0.555084994123682  1.0000
  C   C28       1.0  0.5407755136103133  0.5956046994225943  0.15068849674386076  1.0000
  C   C29       1.0  0.5407734230710375  0.5550844332377665  0.40439481808680705  1.0000
  C   C30       1.0  0.5407753349488119  0.8493125708171905  0.4449127521301504  1.0000
  C   C31       1.0  0.044210625969057615  0.4516748179720623  0.9164266719517682  1.0000
  C   C32       1.0  0.044221831431549716  0.4647514093559196  0.54832515967459  1.0000
  C   C33       1.0  0.04420595473338551  0.08357362526401607  0.5352468262224475  1.0000
  C   C34       1.0  0.5442126424199643  0.5483257227010867  0.08357126411144114  1.0000
  C   C35       1.0  0.5442061889735541  0.5352473415278213  0.4516719814602154  1.0000
  C   C36       1.0  0.5442086016318939  0.9164261692679362  0.4647518559686857  1.0000
  C   C37       1.0  0.03018131647303331  0.37689988751031933  0.7306422835294055  1.0000
  C   C38       1.0  0.0301754010581163  0.35374287699904283  0.6230979803835835  1.0000
  C   C39       1.0  0.030177254126378703  0.2693555010380352  0.6462547670168134  1.0000
  C   C40       1.0  0.5301813009669943  0.6230980036804185  0.2693539644702837  1.0000
  C   C41       1.0  0.5301808803576051  0.6462550808328942  0.37689733939753006  1.0000
  C   C42       1.0  0.5301837793100148  0.7306421414388923  0.35374172969365947  1.0000
  C   C43       1.0  0.8214883058010544  0.8807730196269858  0.3445262268612196  1.0000
  C   C44       1.0  0.8214843474172184  0.4637582834787181  0.11923317992899032  1.0000
  C   C45       1.0  0.8214855719044964  0.6554738211644066  0.5362470535849013  1.0000
  C   C46       1.0  0.32148565596851614  0.11922839424153149  0.6554757303474047  1.0000
  C   C47       1.0  0.3214832783354922  0.5362408431732818  0.8807684797639083  1.0000
  C   C48       1.0  0.3214812618328864  0.3445268644119822  0.46375218562021553  1.0000
  C   C49       1.0  0.8380315647567543  0.8141083204266552  0.28525043482670037  1.0000
  C   C50       1.0  0.8380287340001189  0.471145939340481  0.18589761227343612  1.0000
  C   C51       1.0  0.8380303512300673  0.7147493201010491  0.5288574254455722  1.0000
  C   C52       1.0  0.33803068025464  0.18589333993795523  0.7147513108806292  1.0000
  C   C53       1.0  0.33802796699843907  0.5288520748055346  0.8141034717716094  1.0000
  C   C54       1.0  0.33802714175912035  0.2852517940444272  0.47114228175979617  1.0000
  C   C55       1.0  0.7857895419644692  0.7544084960572307  0.26586455073702797  1.0000
  C   C56       1.0  0.7857804727335777  0.5114575843502038  0.2455972970887075  1.0000
  C   C57       1.0  0.785787287296806  0.7341334996009934  0.4885414278029143  1.0000
  C   C58       1.0  0.2857869723886495  0.24559373537947257  0.7341356518284242  1.0000
  C   C59       1.0  0.2857841615951529  0.48853950858476486  0.7544037360827855  1.0000
  C   C60       1.0  0.28578368303902124  0.2658669420469836  0.511457979822552  1.0000
  C   C61       1.0  0.8345886519622497  0.7063848418764351  0.20708420345549422  1.0000
  C   C62       1.0  0.8345846733940832  0.5007003873084415  0.29362001925299797  1.0000
  C   C63       1.0  0.8345904031550619  0.7929146563649354  0.49929804064568367  1.0000
  C   C64       1.0  0.33459109073981363  0.29361663687634393  0.7929168550128622  1.0000
  C   C65       1.0  0.3345855652846198  0.49929873758724624  0.7063816699075147  1.0000
  C   C66       1.0  0.3345869635332619  0.20708670695562148  0.500701410109677  1.0000
  C   C67       1.0  0.8044822632020825  0.6351107397500826  0.1697396256178435  1.0000
  C   C68       1.0  0.8044792786408623  0.5346287681482877  0.3648930608594014  1.0000
  C   C69       1.0  0.8044837979394969  0.8302574169873438  0.46536899572200946  1.0000
  C   C70       1.0  0.3044807323320882  0.3648898148239681  0.8302614317692443  1.0000
  C   C71       1.0  0.30447975688120016  0.4653711069250194  0.6351078144495117  1.0000
  C   C72       1.0  0.304480781596034  0.16974320422737338  0.534631133455413  1.0000
  C   C73       1.0  0.933945675937885  0.9712424093179379  0.22507333691904552  1.0000
  C   C74       1.0  0.9339416743807336  0.2538384158115505  0.0287592522023559  1.0000
  C   C75       1.0  0.9339433762419633  0.774927461016688  0.7461684814796142  1.0000
  C   C76       1.0  0.4339395907909136  0.02875733296769316  0.7749262218695419  1.0000
  C   C77       1.0  0.4339428003501808  0.746165021484707  0.9712435041631549  1.0000
  C   C78       1.0  0.43394268249249274  0.22507400441721606  0.25383280045505774  1.0000
  C   C79       1.0  0.9620783173989552  0.9045518283473584  0.1680712776031966  1.0000
  C   C80       1.0  0.9620754297627273  0.26352717766149425  0.09545056826907941  1.0000
  C   C81       1.0  0.9620799009602052  0.8319285949789618  0.7364791375750527  1.0000
  C   C82       1.0  0.46207397969538994  0.09544729730657775  0.8319272341784582  1.0000
  C   C83       1.0  0.46207449133540734  0.7364761892226356  0.9045531795843472  1.0000
  C   C84       1.0  0.4620779401574708  0.16807243589607881  0.2635217768569049  1.0000
  C   C85       1.0  0.9659462389740554  0.8827731796270301  0.10026882508718425  1.0000
  C   C86       1.0  0.9659397927901383  0.21750326427343938  0.11722790334471257  1.0000
  C   C87       1.0  0.9659496619637196  0.8997324486709248  0.7825055604220593  1.0000
  C   C88       1.0  0.4659383791824966  0.1172263762957043  0.8997301261765924  1.0000
  C   C89       1.0  0.4659392813539896  0.7825026380234876  0.882775901996986  1.0000
  C   C90       1.0  0.46594287622840375  0.10026937661906037  0.2174971524924274  1.0000
  C   C91       1.0  0.9946658531584731  0.8153988228266441  0.0681770544597882  1.0000
  C   C92       1.0  0.9946659146094988  0.252782002268738  0.1845995455216283  1.0000
  C   C93       1.0  0.9946706372263776  0.9318220306813105  0.7472197547679613  1.0000
  C   C94       1.0  0.4946619191778581  0.1846002984587117  0.9318215306185988  1.0000
  C   C95       1.0  0.49466581774503043  0.7472190242378292  0.8154014422052852  1.0000
  C   C96       1.0  0.4946658471382435  0.06817820089155192  0.25277944318025186  1.0000
  C   C97       1.0  0.0111021737247015  0.7717264469049713  0.9952737993986388  1.0000
  C   C98       1.0  0.011105087325979902  0.22355091064120802  0.2282710916809591  1.0000
  C   C99       1.0  0.011106109147029  0.00472492220186637  0.7764520961533632  1.0000
  C   C100      1.0  0.5110993840365694  0.2282726725640956  0.004724626255232093  1.0000
  C   C101      1.0  0.5111028064589718  0.7764510422638439  0.7717296699852552  1.0000
  C   C102      1.0  0.5111017846430954  0.9952744947723035  0.22354861671682602  1.0000
  C   C103      1.0  0.1715067926245908  0.9155397914814574  0.3493998400440858  1.0000
  C   C104      1.0  0.1715091520924759  0.433859801659601  0.08445870507739534  1.0000
  C   C105      1.0  0.1715026563861883  0.6505979743028263  0.5661370399749471  1.0000
  C   C106      1.0  0.6715057009285985  0.08445769876836809  0.650598830960824  1.0000
  C   C107      1.0  0.671508885477188  0.5661379373037791  0.915539717221172  1.0000
  C   C108      1.0  0.6715027091303656  0.34940064408473864  0.43385877974874626  1.0000
  C   C109      1.0  0.1807430384299522  0.8477598722663232  0.2901683214337749  1.0000
  C   C110      1.0  0.1807441488901844  0.4424108818072626  0.15224029026503416  1.0000
  C   C111      1.0  0.18073645558104093  0.7098292141626176  0.5575889097737983  1.0000
  C   C112      1.0  0.6807444990077443  0.15223798089146354  0.7098317293460209  1.0000
  C   C113      1.0  0.6807402205328899  0.557591048356784  0.8477608529535486  1.0000
  C   C114      1.0  0.6807407858134766  0.2901685902042601  0.44240860507265706  1.0000
  C   C115      1.0  0.26096976406262945  0.8009456805396128  0.2734276943701558  1.0000
  C   C116      1.0  0.26097412829825123  0.47248310208867383  0.1990549176240463  1.0000
  C   C117      1.0  0.260966162635313  0.726566728322858  0.5275127287156989  1.0000
  C   C118      1.0  0.7609703654200574  0.19905309007830843  0.7265724702167444  1.0000
  C   C119      1.0  0.7609747132119935  0.5275174583177532  0.8009460419063996  1.0000
  C   C120      1.0  0.7609700068268096  0.27342773442452273  0.47248312800375897  1.0000
  C   C121      1.0  0.2314944789458764  0.7451415976988259  0.21314336116994773  1.0000
  C   C122      1.0  0.2314968123724128  0.46800388037747337  0.2548587319755453  1.0000
  C   C123      1.0  0.23149167707463653  0.7868533696661828  0.5319949866988478  1.0000
  C   C124      1.0  0.7314961074685941  0.25485749222505677  0.7868555601979137  1.0000
  C   C125      1.0  0.7314929820388514  0.5319981096236435  0.7451415971852028  1.0000
  C   C126      1.0  0.7314925733184339  0.21314306889487267  0.46800227815555207  1.0000
  C   C127      1.0  0.2953805616315677  0.6833481711550604  0.17653132177517958  1.0000
  C   C128      1.0  0.2953791357010189  0.493183884212158  0.3166528055728008  1.0000
  C   C129      1.0  0.29537759624836474  0.8234659001057381  0.5068157705925881  1.0000
  C   C130      1.0  0.7953798389040826  0.3166504127768164  0.8234682407085427  1.0000
  C   C131      1.0  0.795379680833456  0.5068190742314016  0.6833501365606762  1.0000
  C   C132      1.0  0.7953788442759021  0.17653132482439557  0.4931834277392254  1.0000
  S   S1        1.0  0.8896425410377304  0.6664861889437005  0.035741849478888865  1.0000
  S   S2        1.0  0.8896459178958197  0.36925667986663063  0.33351253177973916  1.0000
  S   S3        1.0  0.8896450289033666  0.9642554158017164  0.6307444882783596  1.0000
  S   S4        1.0  0.3896445665293696  0.3335125156331744  0.9642560686001999  1.0000
  S   S5        1.0  0.38964277368159383  0.6307394887792627  0.6664853375051081  1.0000
  S   S6        1.0  0.3896389106716356  0.035744745360588644  0.36925886578816147  1.0000
  S   S7        1.0  0.05378884574916042  0.6054658050854086  0.12290280585615679  1.0000
  S   S8        1.0  0.05377979775725091  0.5174352548786204  0.39452935716627735  1.0000
  S   S9        1.0  0.05378888496097999  0.8771020159511809  0.4825670174184963  1.0000
  S   S10       1.0  0.5537961327741456  0.3945366704672823  0.8771035544554805  1.0000
  S   S11       1.0  0.5537798366483956  0.48256584858048523  0.6054671747812037  1.0000
  S   S12       1.0  0.5537794614795573  0.1229136366848493  0.517439089429409  1.0000
  S   S13       1.0  0.16778285250664743  0.6848738151922262  0.03625556676654175  1.0000
  S   S14       1.0  0.1677814801601087  0.35138215474545115  0.3151183635054834  1.0000
  S   S15       1.0  0.16778624024172475  0.9637406700398471  0.6486217089036329  1.0000
  S   S16       1.0  0.6677903609400246  0.3151200293372795  0.9637424342160654  1.0000
  S   S17       1.0  0.6677869812736577  0.6486174232979635  0.6848833812707651  1.0000
  S   S18       1.0  0.6677838052207081  0.03626226981015185  0.3513878745094486  1.0000
  N   N1        1.0  0.8426603774227958  0.5072511805429089  0.006004982162828306  1.0000
  N   N2        1.0  0.8426464580653247  0.49874850778506635  0.49275362866157457  1.0000
  N   N3        1.0  0.8426398994474837  0.9940063063540592  0.5012582467110601  1.0000
  N   N4        1.0  0.3426461215380457  0.4927435866088034  0.9939898813598657  1.0000
  N   N5        1.0  0.3426354888266161  0.5012489595231459  0.5072454272616226  1.0000
  N   N6        1.0  0.3426491754907275  0.006004084566072333  0.49875373280911356  1.0000
  N   N7        1.0  0.03905226204972221  0.5174593770757171  0.9389345417836025  1.0000
  N   N8        1.0  0.0390633531200564  0.42147632217272957  0.48254062118511587  1.0000
  N   N9        1.0  0.0390446907886712  0.0610645363764918  0.5785213723378391  1.0000
  N   N10       1.0  0.5390504208860208  0.48254277200513945  0.061063498107884626  1.0000
  N   N11       1.0  0.5390472498442592  0.5785231089035676  0.5174566904203812  1.0000
  N   N12       1.0  0.5390500721280774  0.9389348280600984  0.421476867461294  1.0000
  N   N13       1.0  0.029992885303023808  0.31193356703703773  0.7122202361986609  1.0000
  N   N14       1.0  0.029988643932448208  0.4002874181954894  0.6880651081562588  1.0000
  N   N15       1.0  0.029986952596047407  0.2877778265722384  0.5997117244355505  1.0000
  N   N16       1.0  0.5299919469185924  0.6880644396114093  0.2877776190864834  1.0000
  N   N17       1.0  0.5299874762571619  0.5997106550943131  0.31193181890764515  1.0000
  N   N18       1.0  0.5299899595946372  0.7122204954314385  0.40028495391666025  1.0000
  N   N19       1.0  0.9140422746831548  0.8013568297570828  0.23935307298092567  1.0000
  N   N20       1.0  0.9140420923314425  0.4380008186417683  0.19864666196558284  1.0000
  N   N21       1.0  0.9140412460550636  0.7606460494661678  0.5620041376257987  1.0000
  N   N22       1.0  0.4140424870524271  0.19864259984159838  0.7606476179717915  1.0000
  N   N23       1.0  0.4140418774083798  0.5619991571764232  0.8013560674828708  1.0000
  N   N24       1.0  0.4140363876514144  0.23935437498869316  0.43799555846861427  1.0000
  N   N25       1.0  0.9134537666642899  0.7356487523624864  0.19096897111007385  1.0000
  N   N26       1.0  0.9134538546243789  0.4553226863868289  0.2643536269589004  1.0000
  N   N27       1.0  0.9134549940652051  0.8090280667954489  0.5446785723679922  1.0000
  N   N28       1.0  0.4134556632558954  0.26435167217068295  0.8090307236705667  1.0000
  N   N29       1.0  0.41345399130120347  0.5446771074370391  0.7356484216680029  1.0000
  N   N30       1.0  0.4134488918339656  0.1909717448778565  0.4553200121212412  1.0000
  N   N31       1.0  0.987972980939624  0.8519041823319781  0.17529147023563488  1.0000
  N   N32       1.0  0.9879779528461443  0.3233928817796325  0.1480960555624548  1.0000
  N   N33       1.0  0.9879765821516246  0.8247060905161946  0.6766110935841423  1.0000
  N   N34       1.0  0.48797232402166213  0.14809450906329866  0.8247066690064526  1.0000
  N   N35       1.0  0.4879721041420383  0.6766100508453546  0.8519073197594123  1.0000
  N   N36       1.0  0.4879734748318755  0.1752931470982304  0.3233890841599133  1.0000
  N   N37       1.0  0.007080849790959601  0.7968142710878539  0.1147865048995271  1.0000
  N   N38       1.0  0.007086168456417902  0.3179769119551707  0.2031848366324595  1.0000
  N   N39       1.0  0.007089216133927302  0.8852119022628814  0.6820276813501777  1.0000
  N   N40       1.0  0.5070810899136192  0.20318416941908182  0.8852117296392165  1.0000
  N   N41       1.0  0.5070844832848422  0.6820251569209789  0.7968175237053499  1.0000
  N   N42       1.0  0.5070806436069475  0.11478812811029837  0.31797413276555625  1.0000
  N   N43       1.0  0.1070225146642798  0.8203430965772969  0.24134875694077332  1.0000
  N   N44       1.0  0.1070207423969123  0.4210120112678908  0.1796587632821768  1.0000
  N   N45       1.0  0.1070192130295098  0.7586497471544221  0.578992634756858  1.0000
  N   N46       1.0  0.6070234488981044  0.1796556280373593  0.7586519895979363  1.0000
  N   N47       1.0  0.6070180931379668  0.578989680065192  0.8203424628308439  1.0000
  N   N48       1.0  0.607018830500394  0.2413484312413062  0.42100607327633094  1.0000
  N   N49       1.0  0.136382789241317  0.7572696092109085  0.19375830219515675  1.0000
  N   N50       1.0  0.1363836593621883  0.436492636838608  0.24273113058045936  1.0000
  N   N51       1.0  0.1363809629830257  0.8062390234677536  0.563509231397553  1.0000
  N   N52       1.0  0.6363814526261963  0.2427299242505397  0.8062408360293102  1.0000
  N   N53       1.0  0.6363782064999413  0.5635081889842367  0.7572693000002386  1.0000
  N   N54       1.0  0.6363793188791432  0.1937592664243226  0.4364911503853363  1.0000
