data_image0
_chemical_formula_structural       Zn2H30C44N8O8
_chemical_formula_sum              "Zn2 H30 C44 N8 O8"
_cell_length_a       11.017962560579345
_cell_length_b       15.89978535640748
_cell_length_c       17.23393562079114
_cell_angle_alpha    92.61068652903741
_cell_angle_beta     89.90630324610294
_cell_angle_gamma    92.3054781727777

_space_group_name_H-M_alt    "P 1"
_space_group_IT_number       1

loop_
  _space_group_symop_operation_xyz
  'x, y, z'

loop_
  _atom_site_type_symbol
  _atom_site_label
  _atom_site_symmetry_multiplicity
  _atom_site_fract_x
  _atom_site_fract_y
  _atom_site_fract_z
  _atom_site_occupancy
  Zn  Zn1       1.0  0.5043397735607513  0.5881793950519523  0.4974608162187623  1.0000
  Zn  Zn2       1.0  0.4956695411270928  0.4118259969125191  0.5025469447195976  1.0000
  H   H1        1.0  0.2319276957739049  0.1259628427924824  0.37589899468389404  1.0000
  H   H2        1.0  0.7680505212250637  0.8740377753998204  0.624083005088011  1.0000
  H   H3        1.0  0.5965600427477895  0.6357122128837603  0.7452965552703434  1.0000
  H   H4        1.0  0.4034334519959729  0.3642731299465042  0.25470040130165483  1.0000
  H   H5        1.0  0.39971715724218637  0.7291551184358341  0.5860759132722964  1.0000
  H   H6        1.0  0.6003220593383746  0.2708495235224504  0.41393181913756666  1.0000
  H   H7        1.0  0.4015340071350053  0.8881873699931617  0.5846048443300946  1.0000
  H   H8        1.0  0.5985043914778316  0.11181854553815639  0.41540120661348134  1.0000
  H   H9        1.0  0.35396577746467983  0.1280716288563397  0.6107041592173703  1.0000
  H   H10       1.0  0.646050430463646  0.8719275179032522  0.3892882247564417  1.0000
  H   H11       1.0  0.3685514483448884  0.2866212000913109  0.6024620034687447  1.0000
  H   H12       1.0  0.6314576575522537  0.7133804797847387  0.39753339858143744  1.0000
  H   H13       1.0  0.2732566280552291  0.2540663212596641  0.3006148920854487  1.0000
  H   H14       1.0  0.7267344672839898  0.7459373410919952  0.6993771170936116  1.0000
  H   H15       1.0  0.19466954992118707  0.3913993926110421  0.3466491192034483  1.0000
  H   H16       1.0  0.8053259849891462  0.6086029686009693  0.6533468919797019  1.0000
  H   H17       1.0  0.027027521474408914  0.2738860493551343  0.541960547220292  1.0000
  H   H18       1.0  0.9729776309230689  0.7261106206805721  0.45803171865819814  1.0000
  H   H19       1.0  0.10755140791336973  0.13617002959387045  0.4968390093658785  1.0000
  H   H20       1.0  0.8924346257969449  0.8638254891666007  0.503147395982204  1.0000
  H   H21       1.0  0.8718564250041683  0.3721198356283536  0.46875941639031304  1.0000
  H   H22       1.0  0.1281377495034661  0.6278761697498324  0.5312467422787892  1.0000
  H   H23       1.0  0.6227515378396191  0.5805721362371302  0.10267727557130976  1.0000
  H   H24       1.0  0.37721658487051724  0.41942777457219194  0.8973255783005032  1.0000
  H   H25       1.0  0.6133076261945974  0.6406448691829921  0.8919091654688036  1.0000
  H   H26       1.0  0.3866862819331589  0.3593467679627408  0.10808924572566535  1.0000
  H   H27       1.0  0.6695022597086862  0.5960855601616828  0.31252075406823127  1.0000
  H   H28       1.0  0.7298127487370395  0.6224172343795968  0.2239524634464801  1.0000
  H   H29       1.0  0.3304870220908854  0.40390482521522125  0.6874793384266343  1.0000
  H   H30       1.0  0.27015905514747374  0.3775833082647537  0.7760475194427915  1.0000
  C   C1        1.0  0.485944181535757  0.5194615581674356  0.6528828930328034  1.0000
  C   C2        1.0  0.5140499818372107  0.4805477151654786  0.34711808279922013  1.0000
  C   C3        1.0  0.8730185486329134  0.5019858272099142  0.5067383650040116  1.0000
  C   C4        1.0  0.12697954743174483  0.4980140125405653  0.4932557881781323  1.0000
  C   C5        1.0  0.9442671335293228  0.576325347430668  0.524544818674059  1.0000
  C   C6        1.0  0.055732767391624805  0.4236744687636502  0.47545223509739304  1.0000
  C   C7        1.0  0.4818065001458366  0.5240885093670828  0.7394244740045512  1.0000
  C   C8        1.0  0.5181749928045251  0.4759075827213906  0.2605753031026482  1.0000
  C   C9        1.0  0.4145350157992454  0.46289019607203835  0.7819176261062568  1.0000
  C   C10       1.0  0.5854383981403829  0.5371071954041255  0.21808104942027748  1.0000
  C   C11       1.0  0.42449014865696466  0.4665628575900628  0.863108323570565  1.0000
  C   C12       1.0  0.575480582887664  0.533435171613654  0.13689096142071125  1.0000
  C   C13       1.0  0.4983372173368537  0.5285638583304433  0.9016913834649076  1.0000
  C   C14       1.0  0.5016346223370151  0.47143730462411776  0.09831036918566134  1.0000
  C   C15       1.0  0.5588507583548151  0.5918316198999917  0.8601231981302678  1.0000
  C   C16       1.0  0.4411387281549538  0.40816190937702856  0.13987820178262925  1.0000
  C   C17       1.0  0.5496841500956722  0.5885744334497147  0.7797098982372295  1.0000
  C   C18       1.0  0.45030063454360203  0.4114165969228197  0.22029080366708345  1.0000
  C   C19       1.0  0.5484650641428104  0.23597757888921927  0.4567342824705422  1.0000
  C   C20       1.0  0.451574148474144  0.7640270565538289  0.5432746101529277  1.0000
  C   C21       1.0  0.5468047549018282  0.1488650574656702  0.45742409644392995  1.0000
  C   C22       1.0  0.4532504905323124  0.8511350889527877  0.5425869110182122  1.0000
  C   C23       1.0  0.2633677288639192  0.4997478975684685  0.49394961103787  1.0000
  C   C24       1.0  0.7366341209437692  0.5002682254840494  0.5060609705739338  1.0000
  C   C25       1.0  0.47626639110973207  0.1091091383724034  0.5141022072428572  1.0000
  C   C26       1.0  0.5237511157854016  0.8908962632348149  0.4858980125558931  1.0000
  C   C27       1.0  0.4097931290353998  0.15820071410351494  0.5669115919777072  1.0000
  C   C28       1.0  0.5902261230281383  0.8418034428728234  0.43308450824694955  1.0000
  C   C29       1.0  0.417427128851422  0.245350184217898  0.5623515719631274  1.0000
  C   C30       1.0  0.5825858530212785  0.7546552551052058  0.437645167056566  1.0000
  C   C31       1.0  0.21961157698757464  0.2581873138674666  0.35379254937184623  1.0000
  C   C32       1.0  0.7803784837829184  0.7418144586113868  0.6461999515637162  1.0000
  C   C33       1.0  0.1749681228805358  0.3353835181298379  0.3794148153964871  1.0000
  C   C34       1.0  0.8250347545605268  0.6646200741760423  0.6205812548896221  1.0000
  C   C35       1.0  0.1058065237821921  0.3421574653491604  0.44774579957395144  1.0000
  C   C36       1.0  0.8941876068919827  0.6578373450152669  0.5522486980773211  1.0000
  C   C37       1.0  0.0808952664585902  0.26926815467756166  0.48887229791436254  1.0000
  C   C38       1.0  0.9190908845287922  0.7307292413016526  0.5111165161835844  1.0000
  C   C39       1.0  0.12658045963382136  0.19200220286973044  0.4635881930663076  1.0000
  C   C40       1.0  0.8734011643493247  0.8079952275677442  0.5363977203593822  1.0000
  C   C41       1.0  0.19637474287995363  0.18621903855610358  0.39596802399491804  1.0000
  C   C42       1.0  0.8036069188743442  0.8137790154491994  0.6040190790852622  1.0000
  C   C43       1.0  0.9296943850799978  0.4278411479170358  0.48325154608239995  1.0000
  C   C44       1.0  0.07029885814645102  0.5721542603306916  0.5167493621569437  1.0000
  N   N1        1.0  0.5189700840209  0.5323741413712355  0.9827550515630468  1.0000
  N   N2        1.0  0.4810103703971223  0.46762005432920256  0.017246377514261706  1.0000
  N   N3        1.0  0.48565867441493543  0.2832492494549255  0.5085960293503151  1.0000
  N   N4        1.0  0.5143659325295857  0.7167536157782094  0.49140175247887213  1.0000
  N   N5        1.0  0.46537285899984243  0.020818169409167805  0.5221802744875748  1.0000
  N   N6        1.0  0.5346563246108859  0.9791853044792589  0.477818117027539  1.0000
  N   N7        1.0  0.6579413000249803  0.5998536794173289  0.2544257630872694  1.0000
  N   N8        1.0  0.342033958523885  0.40014431532812006  0.7455764225762638  1.0000
  O   O1        1.0  0.5000335222042268  0.5879227219608226  0.6175702898726885  1.0000
  O   O2        1.0  0.5000428036864832  0.4120804945478298  0.38244028532298574  1.0000
  O   O3        1.0  0.4775496899099211  0.44570486896358835  0.6199795303639635  1.0000
  O   O4        1.0  0.5223409741347709  0.5543036008321068  0.3800138420459833  1.0000
  O   O5        1.0  0.3190128058417657  0.5713462693408999  0.48972563866618685  1.0000
  O   O6        1.0  0.6809759962974555  0.4286815019166709  0.5103527942969139  1.0000
  O   O7        1.0  0.31282155973223524  0.4297308514008975  0.5008571089305537  1.0000
  O   O8        1.0  0.6871943583231329  0.5702749288429702  0.49907697863732664  1.0000
