data_image0
_chemical_formula_structural       Er2H44C66O22
_chemical_formula_sum              "Er2 H44 C66 O22"
_cell_length_a       9.866628897706143
_cell_length_b       10.179872898230736
_cell_length_c       15.455190331373002
_cell_angle_alpha    96.63145724477543
_cell_angle_beta     97.19196165922355
_cell_angle_gamma    113.59264222424453

_space_group_name_H-M_alt    "P 1"
_space_group_IT_number       1

loop_
  _space_group_symop_operation_xyz
  'x, y, z'

loop_
  _atom_site_type_symbol
  _atom_site_label
  _atom_site_symmetry_multiplicity
  _atom_site_fract_x
  _atom_site_fract_y
  _atom_site_fract_z
  _atom_site_occupancy
  Er  Er1       1.0  0.43650989374071264  0.6362480413641549  0.5897182711783346  1.0000
  Er  Er2       1.0  0.563501887813139  0.3637575748887513  0.4102791105096842  1.0000
  H   H1        1.0  0.5187720402258265  0.1371706852890213  0.5877131523623975  1.0000
  H   H2        1.0  0.4812258907782407  0.8628359565873039  0.412278013459357  1.0000
  H   H3        1.0  0.7487796666329629  0.3127469989841459  0.9065358278234473  1.0000
  H   H4        1.0  0.2512087622702879  0.6872400260516329  0.09345505837380592  1.0000
  H   H5        1.0  0.821501417181416  0.8203522990491479  0.8672395626972149  1.0000
  H   H6        1.0  0.1784870815094735  0.17964672073665613  0.13275610118783024  1.0000
  H   H7        1.0  0.9960895016380962  0.0138765319580259  0.801677780194787  1.0000
  H   H8        1.0  0.003909858646700481  0.9861192642565938  0.19832110759445243  1.0000
  H   H9        1.0  0.12950046268176169  0.9506005044712754  0.6870978625066828  1.0000
  H   H10       1.0  0.8705073246470789  0.0493888124749304  0.3129076937561664  1.0000
  H   H11       1.0  0.08469970812119952  0.6923828711673751  0.6399491183235285  1.0000
  H   H12       1.0  0.915308471624158  0.30760973394934876  0.3600612427313053  1.0000
  H   H13       1.0  0.9042108555168439  0.4981969867153779  0.7016467372116681  1.0000
  H   H14       1.0  0.09578654295430061  0.5017966616427645  0.2983595976213209  1.0000
  H   H15       1.0  0.6507286134972574  0.7997671644421516  0.9373772979604598  1.0000
  H   H16       1.0  0.34926303262869146  0.20022966904862466  0.06261457505169692  1.0000
  H   H17       1.0  0.425954774267673  0.6082824698748156  0.9771764443290395  1.0000
  H   H18       1.0  0.5740379777000512  0.39171221569003484  0.022821181721553813  1.0000
  H   H19       1.0  0.1783448429539689  0.6215315568199957  0.9493082972683597  1.0000
  H   H20       1.0  0.8216486922266385  0.378469687398443  0.050695054716463524  1.0000
  H   H21       1.0  0.15574807661406706  0.8271609495574738  0.8867308897614237  1.0000
  H   H22       1.0  0.8442499417303323  0.1728435886346915  0.1132763028915349  1.0000
  H   H23       1.0  0.3764806529674162  0.0120183418698971  0.8426169704450148  1.0000
  H   H24       1.0  0.6235098929872862  0.9879807014528696  0.15738274230279364  1.0000
  H   H25       1.0  0.8212241943435643  0.9795738309330843  0.6023827419219218  1.0000
  H   H26       1.0  0.1787812893698941  0.0204361254828811  0.3976151014873395  1.0000
  H   H27       1.0  0.060350248866726054  0.6716444029982257  0.23054504951171856  1.0000
  H   H28       1.0  0.9396480096266727  0.32835358536093656  0.7694577943634331  1.0000
  H   H29       1.0  0.9432754975126729  0.6510195099599374  0.07364897388927015  1.0000
  H   H30       1.0  0.056719853964679566  0.3489741178091421  0.9263539593559076  1.0000
  H   H31       1.0  0.7088809434690616  0.6835181482082575  0.04153131596666529  1.0000
  H   H32       1.0  0.291116050163339  0.31648636642380273  0.9584712631550902  1.0000
  H   H33       1.0  0.5930483510962928  0.7468015728587004  0.16551450651385122  1.0000
  H   H34       1.0  0.4069586306054305  0.2532095208539502  0.8344932474508584  1.0000
  H   H35       1.0  0.7176082325027053  0.7820663538307928  0.3216757645320173  1.0000
  H   H36       1.0  0.2824029197259321  0.21794255945950167  0.678328928441289  1.0000
  H   H37       1.0  0.12911781894005253  0.5024214878866786  0.5127228730897075  1.0000
  H   H38       1.0  0.8708800409251722  0.49758743454827237  0.48729110239818857  1.0000
  H   H39       1.0  0.15733266824899056  0.6558647500248753  0.48858394269812794  1.0000
  H   H40       1.0  0.8426806107530709  0.3441419976289026  0.5114220549954284  1.0000
  H   H41       1.0  0.38618640948410393  0.6614859434663742  0.7712637303336154  1.0000
  H   H42       1.0  0.6138322259363136  0.3385142925614489  0.22874350981435757  1.0000
  H   H43       1.0  0.2429540117402667  0.5194703790622627  0.726194169163506  1.0000
  H   H44       1.0  0.7570650947962106  0.48053094711886507  0.2738131898090685  1.0000
  C   C1        1.0  0.5329259279537482  0.9217842982994213  0.6678839234543404  1.0000
  C   C2        1.0  0.46707562295156174  0.07822126217472913  0.3321068066939219  1.0000
  C   C3        1.0  0.5820219958527915  0.42081453760616233  0.6384568868491913  1.0000
  C   C4        1.0  0.4179744425635049  0.5791910259316424  0.36153731391623023  1.0000
  C   C5        1.0  0.5804612520159296  0.07695111548711253  0.7103897566644053  1.0000
  C   C6        1.0  0.41953424281813073  0.9230522530045351  0.28960097007702507  1.0000
  C   C7        1.0  0.5672787290144258  0.17621163532937353  0.6581662027371991  1.0000
  C   C8        1.0  0.4327172382858179  0.8237928380551195  0.34182787920361335  1.0000
  C   C9        1.0  0.6149014116381508  0.32315923797853696  0.694911512096269  1.0000
  C   C10       1.0  0.3850966832455923  0.6768430786131603  0.30508581638966353  1.0000
  C   C11       1.0  0.6830130360646508  0.3738339099600837  0.7851027186939066  1.0000
  C   C12       1.0  0.31697515376971114  0.6261596767003327  0.21489510538096826  1.0000
  C   C13       1.0  0.6966279361554725  0.2741724824235306  0.8367710269372356  1.0000
  C   C14       1.0  0.3033558513748318  0.7258156358292069  0.16322344870177122  1.0000
  C   C15       1.0  0.6442255812877065  0.1261064037893291  0.8013034314795109  1.0000
  C   C16       1.0  0.35576142103506914  0.8738914963872375  0.19868620549981134  1.0000
  C   C17       1.0  0.7429755101219515  0.5311387597051933  0.8296038710068887  1.0000
  C   C18       1.0  0.2570115765708891  0.46885700436022393  0.1703946727791248  1.0000
  C   C19       1.0  0.8489191308248467  0.6454251817127031  0.7889248320297996  1.0000
  C   C20       1.0  0.1510751167009161  0.35457061461766404  0.21107687910163972  1.0000
  C   C21       1.0  0.8778542060095093  0.7920296197000881  0.8169449968341953  1.0000
  C   C22       1.0  0.12213799425244082  0.20796615309330949  0.18305266543448084  1.0000
  C   C23       1.0  0.9766841151368268  0.9011418457398006  0.779733501623845  1.0000
  C   C24       1.0  0.023318395013255597  0.09885179071095962  0.22026742076711517  1.0000
  C   C25       1.0  0.05042419565145899  0.8652625428587015  0.7155420967486992  1.0000
  C   C26       1.0  0.949585476681669  0.1347311405965428  0.28446522936247487  1.0000
  C   C27       1.0  0.02449255846437377  0.7203587821124557  0.6881475510565097  1.0000
  C   C28       1.0  0.9755155401512142  0.279635994490306  0.3118616704910978  1.0000
  C   C29       1.0  0.9230902461591696  0.6106671319588984  0.7239835993258696  1.0000
  C   C30       1.0  0.0769127369971443  0.3893276152805285  0.2760219728143838  1.0000
  C   C31       1.0  0.6641114797159632  0.028735736675834303  0.8637942639504248  1.0000
  C   C32       1.0  0.33588260230997236  0.9712643672517132  0.13619740086711124  1.0000
  C   C33       1.0  0.5280348533448347  0.9173594556803762  0.8870595864133863  1.0000
  C   C34       1.0  0.4719521503280646  0.08263845923573142  0.11293328694070941  1.0000
  C   C35       1.0  0.5415876909894664  0.8040744292893436  0.9261768649315558  1.0000
  C   C36       1.0  0.4584009686108317  0.1959202327848431  0.0738178415931472  1.0000
  C   C37       1.0  0.4163252977234818  0.6975983862642606  0.9482086727034799  1.0000
  C   C38       1.0  0.5836669019984128  0.30239738063332317  0.0517876950152854  1.0000
  C   C39       1.0  0.27710757849550294  0.7057928007119755  0.9332226627758972  1.0000
  C   C40       1.0  0.7228855650786629  0.2942051641796724  0.06677782624180403  1.0000
  C   C41       1.0  0.26351972770913784  0.8200396824307036  0.8969218770015319  1.0000
  C   C42       1.0  0.736470428799322  0.17995610514853413  0.10308015097880492  1.0000
  C   C43       1.0  0.3882385443139497  0.9245462432428866  0.8726878953976185  1.0000
  C   C44       1.0  0.6117500368568258  0.0754506197964204  0.12731214436941946  1.0000
  C   C45       1.0  0.7549560618621457  0.7232118947836598  0.5038544325608074  1.0000
  C   C46       1.0  0.24505862751782098  0.27679809090305  0.4961448015820481  1.0000
  C   C47       1.0  0.8823395270210953  0.8650840473798312  0.5007622888163894  1.0000
  C   C48       1.0  0.117666979784218  0.1349259149088056  0.4992362844743426  1.0000
  C   C49       1.0  0.899897664252137  0.9907139572737762  0.557168998647555  1.0000
  C   C50       1.0  0.10010538221121831  0.009292713965883999  0.4428258165815606  1.0000
  C   C51       1.0  0.9835712427654782  0.8744078047387521  0.4430161867438971  1.0000
  C   C52       1.0  0.01643235675376788  0.12559779401190238  0.5569818286419094  1.0000
  C   C53       1.0  0.9775376064404496  0.7498869601225807  0.3776615599582983  1.0000
  C   C54       1.0  0.02246867344817353  0.2501154063983576  0.6223422548543597  1.0000
  C   C55       1.0  0.8959212926560483  0.7266152268765966  0.2858681121169582  1.0000
  C   C56       1.0  0.10408365582423328  0.2733817065421107  0.7141384275539764  1.0000
  C   C57       1.0  0.9574483847046552  0.6866816076995265  0.21540605139140478  1.0000
  C   C58       1.0  0.04254956358208516  0.3133109327947139  0.7845957162988102  1.0000
  C   C59       1.0  0.8913408642584456  0.674251167099918  0.1281319913842083  1.0000
  C   C60       1.0  0.1086546483983355  0.325738105905458  0.8718706317755862  1.0000
  C   C61       1.0  0.7601499702770269  0.6956703219811686  0.11023471392293521  1.0000
  C   C62       1.0  0.23985096669557043  0.3043244135129299  0.8897693984543839  1.0000
  C   C63       1.0  0.6967327861858907  0.7326045019295864  0.17988396250169106  1.0000
  C   C64       1.0  0.30326948327514464  0.267395678458371  0.8201200141171656  1.0000
  C   C65       1.0  0.7658130132577199  0.7514653097486602  0.26741578235585456  1.0000
  C   C66       1.0  0.23419373801698373  0.24853814987349657  0.7325887985563568  1.0000
  O   O1        1.0  0.5752219868643351  0.8400843856356416  0.7103339468353769  1.0000
  O   O2        1.0  0.424783264531932  0.15991791605447503  0.28965619259668784  1.0000
  O   O3        1.0  0.45259358601351357  0.8733522453801968  0.589735155220396  1.0000
  O   O4        1.0  0.5474080460215661  0.12665114360790855  0.4102567144350859  1.0000
  O   O5        1.0  0.5881304339963691  0.3981510593292938  0.5569434266817199  1.0000
  O   O6        1.0  0.4118719796314494  0.6018588706249517  0.44305028525825924  1.0000
  O   O7        1.0  0.5439821454478492  0.5159596558533296  0.6746535598663217  1.0000
  O   O8        1.0  0.4560203514699239  0.4840481261981395  0.32534646978052006  1.0000
  O   O9        1.0  0.7079276286463881  0.5590889537510578  0.9014140176107975  1.0000
  O   O10       1.0  0.29205898666036484  0.44090571721315536  0.09858376007565539  1.0000
  O   O11       1.0  0.7926557969853433  0.0518942813289343  0.8990719818286481  1.0000
  O   O12       1.0  0.2073272768496821  0.9480992700723405  0.10092089828896181  1.0000
  O   O13       1.0  0.6728992969871611  0.7245052176848998  0.5600511936395948  1.0000
  O   O14       1.0  0.32710075998026156  0.27549924971118134  0.43993933507754696  1.0000
  O   O15       1.0  0.7391403281201079  0.6123400178533771  0.4483840055312528  1.0000
  O   O16       1.0  0.26088726984755073  0.387666764851204  0.5516218541036084  1.0000
  O   O17       1.0  0.05878391261595079  0.6862548433188493  0.3954593928059397  1.0000
  O   O18       1.0  0.9412197701932643  0.3137486075290212  0.6045449402867292  1.0000
  O   O19       1.0  0.18174234370231804  0.6068128808935641  0.5361148802381807  1.0000
  O   O20       1.0  0.8182764396652261  0.3931971459712571  0.4638911570802976  1.0000
  O   O21       1.0  0.3150028128242397  0.6122727994007207  0.715448908366817  1.0000
  O   O22       1.0  0.6850184194055656  0.38772634935225625  0.2845571662261933  1.0000
