data_image0
_chemical_formula_structural       Ag4H20C24S2N4O10
_chemical_formula_sum              "Ag4 H20 C24 S2 N4 O10"
_cell_length_a       8.123423964689557
_cell_length_b       8.681946313166526
_cell_length_c       11.083708458431554
_cell_angle_alpha    94.64452587937483
_cell_angle_beta     96.63189440491092
_cell_angle_gamma    109.24065647464948

_space_group_name_H-M_alt    "P 1"
_space_group_IT_number       1

loop_
  _space_group_symop_operation_xyz
  'x, y, z'

loop_
  _atom_site_type_symbol
  _atom_site_label
  _atom_site_symmetry_multiplicity
  _atom_site_fract_x
  _atom_site_fract_y
  _atom_site_fract_z
  _atom_site_occupancy
  Ag  Ag1       1.0  0.4188111346043543  0.9603012319769421  0.1253420383107269  1.0000
  Ag  Ag2       1.0  0.5811878417970178  0.0396976629775097  0.8746564683084372  1.0000
  Ag  Ag3       1.0  0.4199235842021308  0.2498911753317542  0.031049530834607694  1.0000
  Ag  Ag4       1.0  0.580078312025087  0.7501089242310854  0.9689502211262848  1.0000
  H   H1        1.0  0.7481763863714193  0.292425598018653  0.1008854594284543  1.0000
  H   H2        1.0  0.2518255098557987  0.7075745015441867  0.8991142925324382  1.0000
  H   H3        1.0  0.7209284308284155  0.46670144675354663  0.1640150387327353  1.0000
  H   H4        1.0  0.27907485901654644  0.5333023523252721  0.8359859458264438  1.0000
  H   H5        1.0  0.1068029847863201  0.3646698256045795  0.0891435046934745  1.0000
  H   H6        1.0  0.8932001439691604  0.6353302562393778  0.910856364002875  1.0000
  H   H7        1.0  0.9683411003244017  0.9658345132704867  0.30670277733187123  1.0000
  H   H8        1.0  0.0316595633745536  0.0341656040112284  0.6932968578935571  1.0000
  H   H9        1.0  0.7324266123608683  0.1127830400056737  0.5784817829482307  1.0000
  H   H10       1.0  0.26756275352956754  0.8872135504447555  0.4215183903164217  1.0000
  H   H11       1.0  0.41096254554373957  0.4061088939528688  0.44449231021739877  1.0000
  H   H12       1.0  0.5890380888454274  0.5938912439512906  0.555509128022166  1.0000
  H   H13       1.0  0.8255755077256879  0.5270705094117646  0.3736158204296984  1.0000
  H   H14       1.0  0.17442710764088792  0.4729283736309426  0.6263866424241087  1.0000
  H   H15       1.0  0.5812942215880456  0.9297486926499021  0.38113283525436265  1.0000
  H   H16       1.0  0.4187022897568085  0.0702502377423073  0.6188654378938807  1.0000
  H   H17       1.0  0.2122567374770767  0.1340551849569422  0.4753769369305587  1.0000
  H   H18       1.0  0.7877419012797804  0.8659462181198947  0.5246243782018283  1.0000
  H   H19       1.0  0.8515140407598667  0.41624326692236485  0.5743869096487941  1.0000
  H   H20       1.0  0.14847850932645915  0.5837520715701743  0.4256162079797008  1.0000
  C   C1        1.0  0.6901948768107289  0.28582853544487113  0.2733459552484802  1.0000
  C   C2        1.0  0.3098096309076013  0.7141752562262836  0.7266560475532273  1.0000
  C   C3        1.0  0.27218023120164503  0.40249839810373095  0.2648521947829465  1.0000
  C   C4        1.0  0.7278229122087225  0.5975016734290007  0.7351467724063382  1.0000
  C   C5        1.0  0.1320320432584907  0.3133034978181399  0.17299450805538896  1.0000
  C   C6        1.0  0.867970630727669  0.6866953439796716  0.8270043487701529  1.0000
  C   C7        1.0  0.024285737483708696  0.1552031016628845  0.18812062094074383  1.0000
  C   C8        1.0  0.9757116980546813  0.8447982985103835  0.81187877444205  1.0000
  C   C9        1.0  0.054299250206504696  0.08892079544069278  0.296532155913134  1.0000
  C   C10       1.0  0.9456984936666117  0.9110781172326342  0.7034662339705732  1.0000
  C   C11       1.0  0.7227384952202202  0.1640313136813205  0.49270732960311386  1.0000
  C   C12       1.0  0.27725599118253547  0.8359689025060106  0.5072926234520878  1.0000
  C   C13       1.0  0.3019455414623096  0.3374071209712142  0.3730111490667766  1.0000
  C   C14       1.0  0.6980507941381618  0.6625881024973593  0.6269869097257015  1.0000
  C   C15       1.0  0.7746236424260573  0.3954786940897392  0.3793404560206781  1.0000
  C   C16       1.0  0.2253798971340615  0.6045226587340266  0.6206631290676725  1.0000
  C   C17       1.0  0.6377997798343814  0.06299622118529408  0.3843025484588125  1.0000
  C   C18       1.0  0.3622010596089568  0.9370076030200565  0.6156973011223883  1.0000
  C   C19       1.0  0.19037945390304867  0.18148316072695536  0.389188853451337  1.0000
  C   C20       1.0  0.8096226034136577  0.8185206560707385  0.6108120143723851  1.0000
  C   C21       1.0  0.7889892847855292  0.33358430717672144  0.49022307440797147  1.0000
  C   C22       1.0  0.2110092953517508  0.6664171371450037  0.5097818467526736  1.0000
  C   C23       1.0  0.8751901482090716  0.05861595372468291  0.08964839893517508  1.0000
  C   C24       1.0  0.12480928296162125  0.9413841812759145  0.9103511195547968  1.0000
  S   S1        1.0  0.41515709111653365  0.5988290225304311  0.2379087086557377  1.0000
  S   S2        1.0  0.5848460229840527  0.4011710696247448  0.7620920615476834  1.0000
  N   N1        1.0  0.617113463111032  0.12256090002165368  0.2768205524604923  1.0000
  N   N2        1.0  0.38288721524281755  0.8774392069488358  0.7231781812578717  1.0000
  N   N3        1.0  0.6787266540458035  0.34130989013601715  0.15744693732314363  1.0000
  N   N4        1.0  0.3212769294789908  0.6586914317540788  0.8425539432440131  1.0000
  O   O1        1.0  0.30645292015477577  0.7055650974398945  0.2292898888172985  1.0000
  O   O2        1.0  0.6935476995794972  0.29443505077549054  0.7707124509293308  1.0000
  O   O3        1.0  0.5620913278963613  0.6550493556596919  0.33902668279284137  1.0000
  O   O4        1.0  0.43791006959685336  0.34494953479067203  0.6609747618184372  1.0000
  O   O5        1.0  0.4681535260434444  0.5618380375829304  0.1182585759300494  1.0000
  O   O6        1.0  0.5318483555288723  0.4381620722911279  0.8817420775379077  1.0000
  O   O7        1.0  0.8126360303894985  0.14255493683053544  0.018773817440568087  1.0000
  O   O8        1.0  0.18736588049260675  0.8574451524210788  0.9812250330132599  1.0000
  O   O9        1.0  0.8217392126966843  0.9035774196792304  0.08573522364118698  1.0000
  O   O10       1.0  0.17826517789684  0.0964226238234005  0.9142629587764901  1.0000
