data_image0
_chemical_formula_structural       Zn2H20C24N8Cl4
_chemical_formula_sum              "Zn2 H20 C24 N8 Cl4"
_cell_length_a       6.300187393596148
_cell_length_b       7.353454378066939
_cell_length_c       15.94224729477936
_cell_angle_alpha    87.9545126518147
_cell_angle_beta     89.9950938576288
_cell_angle_gamma    115.4330812856151

_space_group_name_H-M_alt    "P 1"
_space_group_IT_number       1

loop_
  _space_group_symop_operation_xyz
  'x, y, z'

loop_
  _atom_site_type_symbol
  _atom_site_label
  _atom_site_symmetry_multiplicity
  _atom_site_fract_x
  _atom_site_fract_y
  _atom_site_fract_z
  _atom_site_occupancy
  Zn  Zn1       1.0  0.05678235270619334  0.9995878387082797  0.7499124748457149  1.0000
  Zn  Zn2       1.0  0.9432266035364022  0.0004559519684335012  0.2500884037896896  1.0000
  H   H1        1.0  0.6185460826561735  0.3021251943551205  0.7998175171081385  1.0000
  H   H2        1.0  0.315893355897849  0.6974214656620534  0.7002120271929754  1.0000
  H   H3        1.0  0.3814856084138256  0.6979101050465673  0.2001914864236625  1.0000
  H   H4        1.0  0.6841185033795512  0.3026217937087735  0.2997806842457819  1.0000
  H   H5        1.0  0.019872835317990202  0.9048058467220556  0.939827929819181  1.0000
  H   H6        1.0  0.11513790596840322  0.09419909605949074  0.5601149340296558  1.0000
  H   H7        1.0  0.9801473855760746  0.0951463696019275  0.0601706705146086  1.0000
  H   H8        1.0  0.8848307153718411  0.9058465625310036  0.4398828181116272  1.0000
  H   H9        1.0  0.36999534469584455  0.1257961771031191  0.0511855416228642  1.0000
  H   H10       1.0  0.24468165277743037  0.87361886371135  0.4487682443408473  1.0000
  H   H11       1.0  0.6300367731253331  0.8740720646302123  0.9488101848623103  1.0000
  H   H12       1.0  0.7552553355610241  0.12642385102391532  0.5512288716057583  1.0000
  H   H13       1.0  0.6352083306226035  0.42417072392012056  0.08296631654418717  1.0000
  H   H14       1.0  0.21121967063264455  0.5758698787606563  0.4170472472459821  1.0000
  H   H15       1.0  0.36483696100422247  0.5757554744835929  0.9170484977257658  1.0000
  H   H16       1.0  0.7887306266210885  0.42416455830570504  0.5829435509426587  1.0000
  H   H17       1.0  0.9797344378398023  0.36416217289335867  0.8576230576684835  1.0000
  H   H18       1.0  0.6154947006324676  0.6356659631874565  0.6424400250180466  1.0000
  H   H19       1.0  0.02030723016748225  0.6357504716723594  0.14237913822229586  1.0000
  H   H20       1.0  0.3844728520801298  0.36435855096483755  0.3575582646636164  1.0000
  C   C1        1.0  0.5006649624736852  0.22298520144680364  0.851956866217904  1.0000
  C   C2        1.0  0.27739633678280745  0.7763773156291974  0.6479991288461376  1.0000
  C   C3        1.0  0.49933448248944495  0.7770205886554606  0.1480469910413049  1.0000
  C   C4        1.0  0.7225943346301166  0.22368384759463567  0.3519949184184981  1.0000
  C   C5        1.0  0.19545394655065707  0.021967844804876808  0.9281118909740442  1.0000
  C   C6        1.0  0.17334145434044507  0.977096399184525  0.5717950861866825  1.0000
  C   C7        1.0  0.8045927564988204  0.9779897168984135  0.0718798201073128  1.0000
  C   C8        1.0  0.8266467219788535  0.022966118629284403  0.42820022331581936  1.0000
  C   C9        1.0  0.366689049393166  0.1279859174109177  0.983147729006326  1.0000
  C   C10       1.0  0.23874193976384103  0.8712520225213608  0.5168057225916343  1.0000
  C   C11       1.0  0.6333562561563114  0.87192447487773  0.016860737106703997  1.0000
  C   C12       1.0  0.7612343383624278  0.1288057526343067  0.48319145237533684  1.0000
  C   C13       1.0  0.7829670234888866  0.38218193438707004  0.9663989585417241  1.0000
  C   C14       1.0  0.4010917359321765  0.6177539524023173  0.5336026708643189  1.0000
  C   C15       1.0  0.21707493252815613  0.617743955478744  0.0336058062497813  1.0000
  C   C16       1.0  0.5988527185165823  0.38230366424512147  0.46639576399360283  1.0000
  C   C17       1.0  0.7948843475378239  0.4565988777156704  0.0466044031319512  1.0000
  C   C18       1.0  0.3383109347826121  0.5431874579097098  0.4533914563810413  1.0000
  C   C19       1.0  0.20514359437273558  0.543289534160728  0.953398946885251  1.0000
  C   C20       1.0  0.6616370336347545  0.45686767364878017  0.5466025710527659  1.0000
  C   C21       1.0  0.9876639467433038  0.4251682397348659  0.919576395873591  1.0000
  C   C22       1.0  0.5626846895370505  0.5749876801992854  0.5804680497015083  1.0000
  C   C23       1.0  0.012353776535668746  0.5747346201385284  0.0804320418402327  1.0000
  C   C24       1.0  0.43728948716393023  0.4250658871322059  0.4195391561490212  1.0000
  N   N1        1.0  0.2799343718271743  0.08322151396544804  0.8469498539735267  1.0000
  N   N2        1.0  0.19639284812136285  0.9159030927685236  0.6529641842965573  1.0000
  N   N3        1.0  0.7200595356902184  0.9167954079219455  0.1530490274778202  1.0000
  N   N4        1.0  0.8036093929624428  0.0841589799503382  0.347034889547345  1.0000
  N   N5        1.0  0.5600617492972476  0.25456295083473895  0.9342357790782785  1.0000
  N   N6        1.0  0.30544348907824315  0.7449241082845005  0.565738552329151  1.0000
  N   N7        1.0  0.43997304128634346  0.7453834825121604  0.0657734710720277  1.0000
  N   N8        1.0  0.6945106154017681  0.255117929425964  0.43425164986809506  1.0000
  Cl  Cl1       1.0  0.7224959983340539  0.7402723529820817  0.8001017328143831  1.0000
  Cl  Cl2       1.0  0.982294661045252  0.25889944731277126  0.6998463524680858  1.0000
  Cl  Cl3       1.0  0.2775246051773834  0.2597630098966945  0.1998940837323033  1.0000
  Cl  Cl4       1.0  0.01771109365696341  0.7411379485038196  0.30015763939925216  1.0000
