data_image0
_chemical_formula_structural       In2Cu2H32C48N8O16
_chemical_formula_sum              "In2 Cu2 H32 C48 N8 O16"
_cell_length_a       12.23404964077316
_cell_length_b       12.856338611545553
_cell_length_c       13.902260845515348
_cell_angle_alpha    77.91614742413032
_cell_angle_beta     63.897655239716684
_cell_angle_gamma    61.58828225035092

_space_group_name_H-M_alt    "P 1"
_space_group_IT_number       1

loop_
  _space_group_symop_operation_xyz
  'x, y, z'

loop_
  _atom_site_type_symbol
  _atom_site_label
  _atom_site_symmetry_multiplicity
  _atom_site_fract_x
  _atom_site_fract_y
  _atom_site_fract_z
  _atom_site_occupancy
  In  In1       1.0  0.8749593775344876  0.7500847917190967  0.24999934511527735  1.0000
  In  In2       1.0  0.12504119852557263  0.2499167274928453  0.7500002871311224  1.0000
  Cu  Cu1       1.0  0.6249671276754972  0.2500618395608852  0.7499999619204871  1.0000
  Cu  Cu2       1.0  0.3750276222075116  0.7499396796657649  0.2500018020495815  1.0000
  H   H1        1.0  0.9445864992248832  0.9157161599261979  0.48790529544815064  1.0000
  H   H2        1.0  0.5675033792527348  0.5845442034277326  0.4879298961482731  1.0000
  H   H3        1.0  0.6397038046819858  0.9157156476871577  0.012096928076573534  1.0000
  H   H4        1.0  0.3479503937587723  0.5845451717288553  0.012069479755979306  1.0000
  H   H5        1.0  0.05541687459085406  0.08428270624191468  0.5120964955608471  1.0000
  H   H6        1.0  0.43249082136649303  0.4154573158016175  0.5120715069015204  1.0000
  H   H7        1.0  0.3602960275186577  0.08428410283522679  0.9879052103333233  1.0000
  H   H8        1.0  0.652047297038749  0.4154581161765662  0.9879312217316778  1.0000
  H   H9        1.0  0.5354379977314637  0.07232919939588807  0.5069738209392083  1.0000
  H   H10       1.0  0.957598042125611  0.4276382644037254  0.5069962231247299  1.0000
  H   H11       1.0  0.8922370666776163  0.0723339340604241  0.9930204699735655  1.0000
  H   H12       1.0  0.11475967791242449  0.4276382084262807  0.9930090133459685  1.0000
  H   H13       1.0  0.46456725032612695  0.9276687824345016  0.4930229509841339  1.0000
  H   H14       1.0  0.04239739596483372  0.5723614861402452  0.49300302792298817  1.0000
  H   H15       1.0  0.10776892523938394  0.9276658164595304  0.006973795786286975  1.0000
  H   H16       1.0  0.8852382424294164  0.5723606577519289  0.006996346308184644  1.0000
  H   H17       1.0  0.85904816056366  0.051101797457739885  0.6377538827449667  1.0000
  H   H18       1.0  0.5031046536229697  0.44903175466818357  0.6376505598275343  1.0000
  H   H19       1.0  0.5898499896438666  0.051101298437444584  0.8622500807632888  1.0000
  H   H20       1.0  0.5478599309568537  0.4490328475845331  0.8623482117040736  1.0000
  H   H21       1.0  0.14095094581259113  0.948897953065426  0.3622489707458739  1.0000
  H   H22       1.0  0.4968923627869658  0.5509688802076836  0.36235121090231087  1.0000
  H   H23       1.0  0.4101499496455578  0.9488993364268478  0.13775241856669126  1.0000
  H   H24       1.0  0.45213554475054013  0.5509686716413356  0.13765283718503696  1.0000
  H   H25       1.0  0.4682539039509452  0.2048364118924937  0.6497650020824606  1.0000
  H   H26       1.0  0.8818723563641201  0.29512998379407657  0.6497209823625236  1.0000
  H   H27       1.0  0.8269063293202523  0.20484092266372758  0.8502306433933382  1.0000
  H   H28       1.0  0.3229951263140339  0.29512963492805966  0.8502810814251587  1.0000
  H   H29       1.0  0.5317486354047248  0.7951633386332869  0.35023176308092013  1.0000
  H   H30       1.0  0.11812395225645413  0.7048724197729185  0.35027971236573296  1.0000
  H   H31       1.0  0.17309484589349475  0.7951597122139732  0.149764323928089  1.0000
  H   H32       1.0  0.6770025978852702  0.70486923125668  0.14972176530627482  1.0000
  C   C1        1.0  0.8386262445648002  0.97909465550957  0.5222560494004325  1.0000
  C   C2        1.0  0.6390503545518843  0.5210887258095338  0.5223032463918142  1.0000
  C   C3        1.0  0.6822858011116111  0.9790950046448329  0.9777429873134267  1.0000
  C   C4        1.0  0.3398562767387719  0.5210869047334795  0.9776965642991298  1.0000
  C   C5        1.0  0.1613798183709464  0.0209024419716002  0.4777421594445882  1.0000
  C   C6        1.0  0.3609447484523544  0.478912793420946  0.47769636557580936  1.0000
  C   C7        1.0  0.31771511003465497  0.020904745880599797  0.022256284013074844  1.0000
  C   C8        1.0  0.6601376402310566  0.4789137301520439  0.022305553831806286  1.0000
  C   C9        1.0  0.611442000731728  0.06617739466702939  0.5315086191818422  1.0000
  C   C10       1.0  0.857044873879858  0.43384840424060656  0.531494412208552  1.0000
  C   C11       1.0  0.822383699783636  0.06618273663105609  0.9684874653812796  1.0000
  C   C12       1.0  0.20910274442538673  0.43384780424099745  0.968508308746891  1.0000
  C   C13       1.0  0.3885645738508434  0.933817934129543  0.4684881527420544  1.0000
  C   C14       1.0  0.1429515042125474  0.5661531149863919  0.46850484559839606  1.0000
  C   C15       1.0  0.1776221155727527  0.9338170138869797  0.0315078763797984  1.0000
  C   C16       1.0  0.7908923601257528  0.5661519462906951  0.03149668322721056  1.0000
  C   C17       1.0  0.7916305691600275  0.053774587256128784  0.6047037058421337  1.0000
  C   C18       1.0  0.6035685991928191  0.446336898870925  0.6046422075243284  1.0000
  C   C19       1.0  0.6545942605165824  0.053774371786254  0.8952988196287137  1.0000
  C   C20       1.0  0.45009079593192847  0.4463385073469793  0.8953590780549588  1.0000
  C   C21       1.0  0.20836908647999786  0.946225163264337  0.39529950856898205  1.0000
  C   C22       1.0  0.3964256014264082  0.5536646203584182  0.3953591955254723  1.0000
  C   C23       1.0  0.34540567877284917  0.9462262630780386  0.10470367970126658  1.0000
  C   C24       1.0  0.5499056197774268  0.5536647805619167  0.10464197759338116  1.0000
  C   C25       1.0  0.57287681786152  0.1396574048447334  0.6125897860315772  1.0000
  C   C26       1.0  0.8144442591039085  0.3603718271629575  0.61252957435358  1.0000
  C   C27       1.0  0.7874640959215641  0.13966046004427568  0.88740624757623  1.0000
  C   C28       1.0  0.3251815785653989  0.36037283815423404  0.8874721080354674  1.0000
  C   C29       1.0  0.42712281819657977  0.8603423456841737  0.3874098394555998  1.0000
  C   C30       1.0  0.18555238460287177  0.6396288077175213  0.38747075945477144  1.0000
  C   C31       1.0  0.21254067234408353  0.8603366374488174  0.11258872650552827  1.0000
  C   C32       1.0  0.674816978547078  0.6396269123716252  0.1125303845351056  1.0000
  C   C33       1.0  0.7947400664796049  0.9035775000154871  0.3971968244944432  1.0000
  C   C34       1.0  0.807921418944055  0.5965936622264181  0.39722717608829305  1.0000
  C   C35       1.0  0.8017032266539917  0.9035852385355482  0.10279721784313266  1.0000
  C   C36       1.0  0.09548140588418626  0.5965967564705608  0.10277434678746285  1.0000
  C   C37       1.0  0.20527453133511395  0.09641782875559099  0.6027992593868702  1.0000
  C   C38       1.0  0.19207903199220078  0.4034052039532696  0.6027738863205698  1.0000
  C   C39       1.0  0.19830593993701504  0.09641804933854556  0.8972002961984272  1.0000
  C   C40       1.0  0.9045130783844475  0.4034056471026162  0.897226341181195  1.0000
  C   C41       1.0  0.7470603061262154  0.9848875007268558  0.4843486461972119  1.0000
  C   C42       1.0  0.7685335420493757  0.5152561340391486  0.48440164070011327  1.0000
  C   C43       1.0  0.7680577840323796  0.9848867553194861  0.01564959860516507  1.0000
  C   C44       1.0  0.21620814985263345  0.5152564413738999  0.01559955521337028  1.0000
  C   C45       1.0  0.25293980972382724  0.015113134139348002  0.5156527771315494  1.0000
  C   C46       1.0  0.23146101169108882  0.48474538519403143  0.5155976103472354  1.0000
  C   C47       1.0  0.23194495146582766  0.015112995199764594  0.9843496794809282  1.0000
  C   C48       1.0  0.7837898065592557  0.48474596218500193  0.9844022222756975  1.0000
  N   N1        1.0  0.6610650676986796  0.13432266391681938  0.6491493934133387  1.0000
  N   N2        1.0  0.689723982289614  0.3657003305176901  0.6490396285585119  1.0000
  N   N3        1.0  0.7046105998582705  0.1343246989518221  0.8508498704255413  1.0000
  N   N4        1.0  0.44457189184375084  0.36569980296661686  0.8509606079251881  1.0000
  N   N5        1.0  0.3389380028857405  0.8656753179159152  0.35084952375285633  1.0000
  N   N6        1.0  0.3102720426815539  0.6343011887054785  0.3509617812508806  1.0000
  N   N7        1.0  0.29538986911300225  0.8656759359182117  0.1491494009007751  1.0000
  N   N8        1.0  0.5554237423892378  0.6342999475708166  0.14904115604524992  1.0000
  O   O1        1.0  0.7075672323471522  0.8908211860060574  0.379682571509427  1.0000
  O   O2        1.0  0.9126160706313231  0.60938360395469  0.37967119928762827  1.0000
  O   O3        1.0  0.9016259360432103  0.8908255576549208  0.12031324019825686  1.0000
  O   O4        1.0  0.9779950745900624  0.6093795668268455  0.12032822420818677  1.0000
  O   O5        1.0  0.29244802182012136  0.10917502710422868  0.6203142342122446  1.0000
  O   O6        1.0  0.08737731510975533  0.3906187996238799  0.6203287668404941  1.0000
  O   O7        1.0  0.0983770831043956  0.10917507720815678  0.8796853228067077  1.0000
  O   O8        1.0  0.02200023837658477  0.3906175306848708  0.8796724570019875  1.0000
  O   O9        1.0  0.9213528677411846  0.8470544092769146  0.34279537526449355  1.0000
  O   O10       1.0  0.7357088097137424  0.6530496131136727  0.3428276759356944  1.0000
  O   O11       1.0  0.7316080203938427  0.8470563679092536  0.15720368271945515  1.0000
  O   O12       1.0  0.11123244817247979  0.6530486188284073  0.1571702074089316  1.0000
  O   O13       1.0  0.078661963833021  0.15294268816953144  0.6572050193809388  1.0000
  O   O14       1.0  0.26428427279601163  0.3469519061295117  0.6571694163496176  1.0000
  O   O15       1.0  0.2683939892799786  0.1529433826107861  0.8427963104475892  1.0000
  O   O16       1.0  0.8887603702698009  0.3469520160625166  0.8428311888814545  1.0000
