data_image0
_chemical_formula_structural       Cd4H24C32N16O12
_chemical_formula_sum              "Cd4 H24 C32 N16 O12"
_cell_length_a       7.392622623544188
_cell_length_b       10.444098206618829
_cell_length_c       14.740402666203831
_cell_angle_alpha    73.88511750720998
_cell_angle_beta     75.45871973667354
_cell_angle_gamma    69.25101825346448

_space_group_name_H-M_alt    "P 1"
_space_group_IT_number       1

loop_
  _space_group_symop_operation_xyz
  'x, y, z'

loop_
  _atom_site_type_symbol
  _atom_site_label
  _atom_site_symmetry_multiplicity
  _atom_site_fract_x
  _atom_site_fract_y
  _atom_site_fract_z
  _atom_site_occupancy
  Cd  Cd1       1.0  0.7842856478127659  0.25000825413706457  0.7500755301080843  1.0000
  Cd  Cd2       1.0  0.21571250535360795  0.7499932654712111  0.24992369838029294  1.0000
  Cd  Cd3       1.0  0.4999971314923641  0.9999995467783194  5.962373776520163e-07  1.0000
  Cd  Cd4       1.0  0.4999988853969982  0.5000002540604599  0.5000007955929177  1.0000
  H   H1        1.0  0.5389528464483673  0.7110156287637679  0.05613758304220794  1.0000
  H   H2        1.0  0.305881832930474  0.7890139215424056  0.4437602754601285  1.0000
  H   H3        1.0  0.46104581478665085  0.28898278574725816  0.943864321762227  1.0000
  H   H4        1.0  0.6941140343052439  0.21098659482413507  0.5562418177478818  1.0000
  H   H5        1.0  0.3595485672654136  0.7710283722021174  0.003749228463753678  1.0000
  H   H6        1.0  0.13409846131076347  0.7289649387580753  0.4961409701742028  1.0000
  H   H7        1.0  0.6404544911117541  0.22896895458591623  0.9962503001950579  1.0000
  H   H8        1.0  0.8658979959505543  0.2710345063767364  0.5038597509325341  1.0000
  H   H9        1.0  0.0008162599444928499  0.9410964174622903  0.8125339321306412  1.0000
  H   H10       1.0  0.7541506982821249  0.5587319794484885  0.6878391698094359  1.0000
  H   H11       1.0  0.9991861976018438  0.05890295408207891  0.18746222508842428  1.0000
  H   H12       1.0  0.24584959600980474  0.44127056782831203  0.3121587228698884  1.0000
  H   H13       1.0  0.12732864146005332  0.8142074439851684  0.6787316992462705  1.0000
  H   H14       1.0  0.6198340159678039  0.6861142220770874  0.8213924614294468  1.0000
  H   H15       1.0  0.8726770960253774  0.18579092400737812  0.32126734553648356  1.0000
  H   H16       1.0  0.380164819986355  0.31388728664039434  0.17860609008135236  1.0000
  H   H17       1.0  0.4599533642195648  0.8040830456787661  0.5826661595834323  1.0000
  H   H18       1.0  0.8463643905469597  0.69669550366325  0.9171323043246814  1.0000
  H   H19       1.0  0.5400510076902874  0.1959153440953827  0.417334239154492  1.0000
  H   H20       1.0  0.15363052339961314  0.30330916460550117  0.08286695575797859  1.0000
  H   H21       1.0  0.658617503760361  0.924902074527793  0.6191060031530212  1.0000
  H   H22       1.0  0.20235522897453254  0.5756947157963026  0.8807789040972764  1.0000
  H   H23       1.0  0.3413882337250769  0.0750962934647532  0.3808930416297329  1.0000
  H   H24       1.0  0.7976402229547401  0.4243099660084367  0.11922120791837185  1.0000
  C   C1        1.0  0.44603452168043145  0.9993824732511173  0.73724417982379  1.0000
  C   C2        1.0  0.1824227290490584  0.5007793309046775  0.7628751461922147  1.0000
  C   C3        1.0  0.5539685366967433  0.0006148535369234995  0.26275534883502866  1.0000
  C   C4        1.0  0.8175767376500005  0.4992232516897204  0.23712495237526807  1.0000
  C   C5        1.0  0.2564961469070821  0.007087794660982602  0.7916648335191354  1.0000
  C   C6        1.0  0.0550590064549821  0.4928186924559911  0.7086111097351235  1.0000
  C   C7        1.0  0.7435016759298209  0.9929116286922194  0.20833453363243132  1.0000
  C   C8        1.0  0.9449429017850548  0.5071838954287599  0.29138933874317974  1.0000
  C   C9        1.0  0.14422899385708352  0.939349035475786  0.7689088511211039  1.0000
  C   C10       1.0  0.8521732690498852  0.5605666701717597  0.7314055724428528  1.0000
  C   C11       1.0  0.8557699869021675  0.06065244881490631  0.231088171479115  1.0000
  C   C12       1.0  0.14782791568306655  0.43943378349514706  0.26859263385507853  1.0000
  C   C13       1.0  0.21572856652461794  0.8668743095401155  0.6945557991766476  1.0000
  C   C14       1.0  0.776769047725992  0.6333445906092905  0.8055950219133123  1.0000
  C   C15       1.0  0.7842755899467946  0.1331188409189323  0.3054450336969409  1.0000
  C   C16       1.0  0.22323110176085245  0.3666579810942991  0.19440439967658552  1.0000
  C   C17       1.0  0.40135558280167727  0.8613792060492644  0.6403549776140237  1.0000
  C   C18       1.0  0.9027477775073012  0.6391293739868971  0.8596043610718522  1.0000
  C   C19       1.0  0.5986506627523981  0.1386160568460255  0.35964674348478093  1.0000
  C   C20       1.0  0.09724772646487169  0.3608742230501178  0.14039352690952708  1.0000
  C   C21       1.0  0.5136014677348868  0.9283763228269778  0.6613258178831031  1.0000
  C   C22       1.0  0.10305044576418966  0.5720889157251606  0.838650656597977  1.0000
  C   C23       1.0  0.48639849622757964  0.07162412819474892  0.33867221345941084  1.0000
  C   C24       1.0  0.8969496516797623  0.42791474074614644  0.16135098902619657  1.0000
  C   C25       1.0  0.5825536964964897  0.06440174464967191  0.7530319226958752  1.0000
  C   C26       1.0  0.3997450645457903  0.4356911299690866  0.7471217680600688  1.0000
  C   C27       1.0  0.4174486790928925  0.9355955930291701  0.24696828294052858  1.0000
  C   C28       1.0  0.600255593009699  0.5643083366372467  0.25288032984588676  1.0000
  C   C29       1.0  0.1539084739395094  0.08976816952720411  0.8663451706317032  1.0000
  C   C30       1.0  0.11004296721146986  0.4101749288931487  0.6338908309246349  1.0000
  C   C31       1.0  0.846090269252457  0.9102322788493425  0.13365268575540054  1.0000
  C   C32       1.0  0.8899562619203039  0.5898266177870966  0.366110101429733  1.0000
  N   N1        1.0  0.9648124109258517  0.17007508077302447  0.8677788479979611  1.0000
  N   N2        1.0  0.0027524833162075645  0.3298944634837113  0.6324245685791894  1.0000
  N   N3        1.0  0.035186870248821764  0.8299253811395034  0.13221986032213806  1.0000
  N   N4        1.0  0.9972467458155666  0.6701070831965408  0.36757636377517855  1.0000
  N   N5        1.0  0.9057905660795813  0.2189291187055674  0.9493983489623757  1.0000
  N   N6        1.0  0.07428566625949162  0.28113068121990636  0.5507698732175824  1.0000
  N   N7        1.0  0.09420916031559302  0.7810702964020138  0.05060051616702308  1.0000
  N   N8        1.0  0.9257135628722826  0.7188708654603458  0.44923105913678535  1.0000
  N   N9        1.0  0.05215869989969228  0.17170440616807534  0.9966845710808839  1.0000
  N   N10       1.0  0.2206822049355707  0.32839803370125514  0.5034783960963267  1.0000
  N   N11       1.0  0.9478405812749812  0.8282960557444526  0.0033141372392149933  1.0000
  N   N12       1.0  0.779317469416711  0.6716024661740435  0.49652269306734087  1.0000
  N   N13       1.0  0.2090675163144838  0.0915689800165822  0.9463711781738127  1.0000
  N   N14       1.0  0.24704355109020057  0.40847823514089754  0.5538275296102029  1.0000
  N   N15       1.0  0.7909322100806904  0.9084304350909922  0.053627686955579124  1.0000
  N   N16       1.0  0.7529544572710805  0.5915233088941748  0.4461732277887548  1.0000
  O   O1        1.0  0.6153744480421608  0.0540465993535904  0.8356271243628299  1.0000
  O   O2        1.0  0.5048706257622015  0.44609318082716254  0.6645030948070669  1.0000
  O   O3        1.0  0.38462834285366654  0.9459465728870597  0.16437506246592898  1.0000
  O   O4        1.0  0.49513115980158773  0.5539052280834157  0.3354984829306104  1.0000
  O   O5        1.0  0.4951840063785512  0.7742084140741952  0.9965698711209823  1.0000
  O   O6        1.0  0.2657000665316288  0.7258362571248399  0.5033304005326257  1.0000
  O   O7        1.0  0.504817241202538  0.22578998130040162  0.0034308546836995728  1.0000
  O   O8        1.0  0.7342941347130965  0.2741653034014747  0.4966713609106818  1.0000
  O   O9        1.0  0.671245961020297  0.1304107841329269  0.6784817789960372  1.0000
  O   O10       1.0  0.47982936061968917  0.3695828787429464  0.8216684259473153  1.0000
  O   O11       1.0  0.32875469653519174  0.8695886824734063  0.32152031890991845  1.0000
  O   O12       1.0  0.5201681947358666  0.6304123900628653  0.17833359937419857  1.0000
