data_image0
_chemical_formula_structural       Zn2H32C56N2O16
_chemical_formula_sum              "Zn2 H32 C56 N2 O16"
_cell_length_a       14.320169446394095
_cell_length_b       14.35377610155521
_cell_length_c       15.100252515014711
_cell_angle_alpha    88.73071201537812
_cell_angle_beta     86.89168754747726
_cell_angle_gamma    88.42786780537006

_space_group_name_H-M_alt    "P 1"
_space_group_IT_number       1

loop_
  _space_group_symop_operation_xyz
  'x, y, z'

loop_
  _atom_site_type_symbol
  _atom_site_label
  _atom_site_symmetry_multiplicity
  _atom_site_fract_x
  _atom_site_fract_y
  _atom_site_fract_z
  _atom_site_occupancy
  Zn  Zn1       1.0  0.5082822222363959  0.3880346571609436  0.5129233107346636  1.0000
  Zn  Zn2       1.0  0.494047129148491  0.609953761838625  0.5053612033388788  1.0000
  H   H1        1.0  0.6384637944717113  0.5532590594277591  0.7717070233114143  1.0000
  H   H2        1.0  0.37129712991386293  0.47548779053533957  0.2467529600652014  1.0000
  H   H3        1.0  0.7368736103027159  0.5292666013748928  0.9025818525368123  1.0000
  H   H4        1.0  0.2772495980899521  0.4756950918204267  0.1153715177270058  1.0000
  H   H5        1.0  0.3062068125993349  0.5005241420527536  0.7269613794731029  1.0000
  H   H6        1.0  0.7319066462386914  0.5966456703594217  0.1841526196733199  1.0000
  H   H7        1.0  0.777754357094281  0.4576885844963526  0.1317116361169752  1.0000
  H   H8        1.0  0.18078620093967857  0.4891099327532657  0.005922199205755902  1.0000
  H   H9        1.0  0.5718649562848627  0.2749735138915455  0.6714739488941603  1.0000
  H   H10       1.0  0.49490602126275013  0.2746253592132318  0.7679522692491787  1.0000
  H   H11       1.0  0.535068650302975  0.16704138839183705  0.7208720670996556  1.0000
  H   H12       1.0  0.40184898890841936  0.3139749253320898  0.6387725153482933  1.0000
  H   H13       1.0  0.37023919192453997  0.20666252474365612  0.6875996843873081  1.0000
  H   H14       1.0  0.6710727968936396  0.7362857130702591  0.564897233969269  1.0000
  H   H15       1.0  0.7711171535959878  0.7303234972272602  0.4905925441060361  1.0000
  H   H16       1.0  0.7173374294713567  0.8409361799613746  0.5162186424353479  1.0000
  H   H17       1.0  0.6343940189929427  0.6838361967212165  0.4103558714192062  1.0000
  H   H18       1.0  0.6767219867054309  0.7905254735851343  0.3666528902268453  1.0000
  H   H19       1.0  0.5642385925999563  0.303751091624619  0.2865935978559335  1.0000
  H   H20       1.0  0.6619770691846084  0.366851053393347  0.31596231209707065  1.0000
  H   H21       1.0  0.6782758923909498  0.26436139091900657  0.2525117110734527  1.0000
  H   H22       1.0  0.6702754318844909  0.2845061660698248  0.4446448510210955  1.0000
  H   H23       1.0  0.6979766822006257  0.18368738647542662  0.3848221273533666  1.0000
  H   H24       1.0  0.3087283957822748  0.7085648009721408  0.4307341636578741  1.0000
  H   H25       1.0  0.20644228054435837  0.7013894932031233  0.5017109265535922  1.0000
  H   H26       1.0  0.24383677903256998  0.8124494973675875  0.4603896601980537  1.0000
  H   H27       1.0  0.34359901008951976  0.682843600268555  0.5937287286345097  1.0000
  H   H28       1.0  0.28159798084136867  0.7884581818402406  0.6177071005237733  1.0000
  H   H29       1.0  0.6936628174965448  0.09823933047217537  0.2506516896827193  1.0000
  H   H30       1.0  0.3584783882366479  0.8380924970128303  0.7079941829300296  1.0000
  H   H31       1.0  0.2651464947762676  0.18299922116398185  0.6173500305957589  1.0000
  H   H32       1.0  0.5847748547493978  0.8264860837488396  0.2659037621704812  1.0000
  C   C1        1.0  0.5136564129462897  0.5167715809167815  0.3412357965903254  1.0000
  C   C2        1.0  0.4888349010295342  0.5246403019744292  0.6769975470968603  1.0000
  C   C3        1.0  0.5027324015145354  0.5075456023435548  0.9615613329976824  1.0000
  C   C4        1.0  0.5099537254309467  0.5031234264398278  0.05539741282353818  1.0000
  C   C5        1.0  0.41519475105684484  0.49510454227971207  0.9227930216754103  1.0000
  C   C6        1.0  0.597874054667926  0.5142699357555641  0.09401850485269851  1.0000
  C   C7        1.0  0.6727842602229686  0.5261357689976832  0.945074122243078  1.0000
  C   C8        1.0  0.34061315355273797  0.4810693883286843  0.0720025314707939  1.0000
  C   C9        1.0  0.6810042895396577  0.5169524797932821  0.03535236714294851  1.0000
  C   C10       1.0  0.3325976739539628  0.4866370422944612  0.9815802733051695  1.0000
  C   C11       1.0  0.4487940262001829  0.19517612334168888  0.562097583040092  1.0000
  C   C12       1.0  0.5487470216195333  0.8047627470611829  0.4463828128973474  1.0000
  C   C13       1.0  0.5596636514472593  0.19288155093730097  0.4387356446546348  1.0000
  C   C14       1.0  0.4122762975013217  0.8054476524053196  0.5421716277086829  1.0000
  C   C15       1.0  0.5415000912799002  0.09781777443117079  0.4238047875920827  1.0000
  C   C16       1.0  0.4159822305766454  0.9041326718322222  0.5504014684346001  1.0000
  C   C17       1.0  0.42253575919014713  0.10215396323228988  0.5480048661710128  1.0000
  C   C18       1.0  0.5335008599067949  0.9002308042614329  0.4257205818715235  1.0000
  C   C19       1.0  0.4771764113004906  0.051036144014155085  0.48358682425011773  1.0000
  C   C20       1.0  0.47297415064492293  0.9517163623763735  0.4847774012756219  1.0000
  C   C21       1.0  0.5837466046841727  0.04530042757532728  0.3509971734167792  1.0000
  C   C22       1.0  0.360255445409841  0.957492650443484  0.6143281576779598  1.0000
  C   C23       1.0  0.35299335918340086  0.05430817753126149  0.6037786529202194  1.0000
  C   C24       1.0  0.5791720222431352  0.9491970658448918  0.3519442737743219  1.0000
  C   C25       1.0  0.32514242263455634  0.4705679526356548  0.5022956257686104  1.0000
  C   C26       1.0  0.6795418985501128  0.4882633727699781  0.5157118664637109  1.0000
  C   C27       1.0  0.22490063319688144  0.47315269232441887  0.4963058403334486  1.0000
  C   C28       1.0  0.7801049457979303  0.4929523939522367  0.510029069830729  1.0000
  C   C29       1.0  0.13938511574819762  0.47927672599045207  0.49461190925470067  1.0000
  C   C30       1.0  0.8658473257106467  0.49297098482248447  0.5036964356730422  1.0000
  C   C31       1.0  0.045837910268396294  0.4853199169668087  0.4949475944353239  1.0000
  C   C32       1.0  0.9595768946828541  0.4903353968746912  0.49808946968742157  1.0000
  C   C33       1.0  0.4129117470093391  0.4945164308634132  0.8293362948479553  1.0000
  C   C34       1.0  0.599324206288962  0.5226611169749517  0.18762808289476854  1.0000
  C   C35       1.0  0.49221432035852075  0.5205223274764704  0.7764788505401654  1.0000
  C   C36       1.0  0.5172584916536138  0.5076522306641421  0.24180512570210766  1.0000
  C   C37       1.0  0.5768481785993702  0.5360246936358661  0.8140513236983649  1.0000
  C   C38       1.0  0.43399629097812215  0.48760357568212237  0.20415718484774456  1.0000
  C   C39       1.0  0.5847290602738368  0.5250386152026818  0.9060084493955145  1.0000
  C   C40       1.0  0.4279721398374505  0.48849447118303846  0.1116026869235256  1.0000
  C   C41       1.0  0.33379997640085424  0.4560059262095136  0.7814139563082704  1.0000
  C   C42       1.0  0.6828986119069356  0.5559682488598054  0.22902992437147424  1.0000
  C   C43       1.0  0.77617825766594  0.4960863147850246  0.06653637978899948  1.0000
  C   C44       1.0  0.23636371577147494  0.5011251948337969  0.9526017853866264  1.0000
  C   C45       1.0  0.42630256487098717  0.2417822116715697  0.6491518484546928  1.0000
  C   C46       1.0  0.5129251213287559  0.23924892079526214  0.7054396231871392  1.0000
  C   C47       1.0  0.6416263536461813  0.7575407649158235  0.4251389906904777  1.0000
  C   C48       1.0  0.7039905954225318  0.7673078887924231  0.5043307728823547  1.0000
  C   C49       1.0  0.6440455243293713  0.23914374514814793  0.39446102680199147  1.0000
  C   C50       1.0  0.6362547427675267  0.2967973468652757  0.30686465617211667  1.0000
  C   C51       1.0  0.3255262274708102  0.7523071469774931  0.567033631192025  1.0000
  C   C52       1.0  0.26781059474802765  0.7435270733857845  0.4844044415367321  1.0000
  C   C53       1.0  0.6170912967298817  0.09413410422856569  0.2654993342326081  1.0000
  C   C54       1.0  0.3326462160061112  0.911746021098018  0.7021984597138555  1.0000
  C   C55       1.0  0.26453104588279797  0.10680709443975896  0.632189723307931  1.0000
  C   C56       1.0  0.6073743393096365  0.8997577683050575  0.2696549106443555  1.0000
  N   N1        1.0  0.5124301224391273  0.2381478364881886  0.5061710673320761  1.0000
  N   N2        1.0  0.4832125656455588  0.7592566362529922  0.49765511847773064  1.0000
  O   O1        1.0  0.5117699230782833  0.4410489072906643  0.3854114713010759  1.0000
  O   O2        1.0  0.4872663877093614  0.6054870733044521  0.6407826447655439  1.0000
  O   O3        1.0  0.48875114071429954  0.4469242296006469  0.6390759867864872  1.0000
  O   O4        1.0  0.5052440353237984  0.5989925876838526  0.3709524138464175  1.0000
  O   O5        1.0  0.3651723212247546  0.3902841469335525  0.5056277610277602  1.0000
  O   O6        1.0  0.6333604479397364  0.5647066092900132  0.5146154234218372  1.0000
  O   O7        1.0  0.6472916044087141  0.40607935890213287  0.5219069564824108  1.0000
  O   O8        1.0  0.3630024142170711  0.5494810242974137  0.5043264544916966  1.0000
  O   O9        1.0  0.3093681858411657  0.37561857923567016  0.7945705850966363  1.0000
  O   O10       1.0  0.6980120835517881  0.5459258042692524  0.308048148672725  1.0000
  O   O11       1.0  0.8492073015057855  0.512777146400168  0.023908955106328688  1.0000
  O   O12       1.0  0.21519026071572966  0.5294121832719724  0.8788519997934685  1.0000
  O   O13       1.0  0.5595467875479158  0.13100614616058687  0.2182485202925335  1.0000
  O   O14       1.0  0.29794214770004146  0.9511922371944761  0.7670449585233357  1.0000
  O   O15       1.0  0.19208366357811707  0.06942173591407647  0.6573876942512769  1.0000
  O   O16       1.0  0.6496504332609375  0.9374673852690164  0.2061795634489982  1.0000
