data_image0
_chemical_formula_structural       Gd2H20C18S6N6O16
_chemical_formula_sum              "Gd2 H20 C18 S6 N6 O16"
_cell_length_a       8.519540370744762
_cell_length_b       8.693485662023098
_cell_length_c       11.359439328725772
_cell_angle_alpha    104.87921206668432
_cell_angle_beta     96.72389849397757
_cell_angle_gamma    94.47508571563532

_space_group_name_H-M_alt    "P 1"
_space_group_IT_number       1

loop_
  _space_group_symop_operation_xyz
  'x, y, z'

loop_
  _atom_site_type_symbol
  _atom_site_label
  _atom_site_symmetry_multiplicity
  _atom_site_fract_x
  _atom_site_fract_y
  _atom_site_fract_z
  _atom_site_occupancy
  Gd  Gd1       1.0  0.956742384226807  0.8363295645263445  0.587480277045195  1.0000
  Gd  Gd2       1.0  0.04325624856775789  0.1636643216965226  0.4125208406681153  1.0000
  H   H1        1.0  0.1331688512186133  0.27762643857823116  0.063339215484369  1.0000
  H   H2        1.0  0.866811846924044  0.7223762672449183  0.9366649130945319  1.0000
  H   H3        1.0  0.0946894512644647  0.07104728931667378  0.9827210379542421  1.0000
  H   H4        1.0  0.9053054297743515  0.9289551980549361  0.017283690494032583  1.0000
  H   H5        1.0  0.5189467360489814  0.917803709590764  0.22592338728504305  1.0000
  H   H6        1.0  0.4810532568249426  0.0822008860576915  0.7740786961413094  1.0000
  H   H7        1.0  0.4442670081780306  0.012151039971158203  0.3614486590923534  1.0000
  H   H8        1.0  0.555739650496605  0.9878594127336552  0.6385541861127777  1.0000
  H   H9        1.0  0.06755592856603698  0.7424070262488482  0.1594815245676955  1.0000
  H   H10       1.0  0.9324400620009072  0.25758939271770487  0.8405029620596096  1.0000
  H   H11       1.0  0.8704134927654154  0.79516204515847  0.16749897782128198  1.0000
  H   H12       1.0  0.1295932237125754  0.20483710762724877  0.8324941430267147  1.0000
  H   H13       1.0  0.8001449823379828  0.4913577794099878  0.5441945254392238  1.0000
  H   H14       1.0  0.19984875496464843  0.5086415207222998  0.4557972312851036  1.0000
  H   H15       1.0  0.7384050599411579  0.5880395388483491  0.668297510491584  1.0000
  H   H16       1.0  0.2616002567485367  0.4119586041136429  0.3316979451441497  1.0000
  H   H17       1.0  0.12999588658903602  0.5552107053266794  0.6383547045200757  1.0000
  H   H18       1.0  0.8700074782987457  0.44477998439099753  0.36163494979103217  1.0000
  H   H19       1.0  0.24439824130038096  0.7205755300107198  0.6572854105925217  1.0000
  H   H20       1.0  0.7556134963401249  0.2794132347843785  0.3426951348787952  1.0000
  C   C1        1.0  0.1641273955981077  0.15727685782231043  0.0635844595246837  1.0000
  C   C2        1.0  0.8358682221191386  0.8427300686838065  0.9364157633208734  1.0000
  C   C3        1.0  0.5121482443547548  0.9139867142236469  0.3209556851346563  1.0000
  C   C4        1.0  0.48785480315747515  0.08602395179609348  0.6790494528333539  1.0000
  C   C5        1.0  0.11936181446467488  0.12182034326421129  0.1794789472622895  1.0000
  C   C6        1.0  0.8806386159545027  0.8781782572471994  0.8205222301872155  1.0000
  C   C7        1.0  0.6797176406978308  0.9435373388991334  0.3921450638430457  1.0000
  C   C8        1.0  0.3203108188528319  0.05646813161428809  0.6078602018507553  1.0000
  C   C9        1.0  0.481041361078745  0.5859288663035969  0.23022677656172164  1.0000
  C   C10       1.0  0.5189534542741042  0.4140753368049204  0.7697861522739801  1.0000
  C   C11       1.0  0.9787022008218572  0.7436892475798372  0.32776359737133737  1.0000
  C   C12       1.0  0.021301965439917595  0.25631039367485187  0.6722363815784433  1.0000
  C   C13       1.0  0.46313856232455214  0.3276221609955456  0.11704623242160753  1.0000
  C   C14       1.0  0.536853826153461  0.6723983251823353  0.8829610899459938  1.0000
  C   C15       1.0  0.9536042011230847  0.712806747716577  0.18954999521258747  1.0000
  C   C16       1.0  0.046398065290844684  0.2872014080236979  0.8104343826392792  1.0000
  C   C17       1.0  0.686823901318533  0.49456675205571077  0.1364584262528084  1.0000
  C   C18       1.0  0.3131819606930434  0.5054425198588959  0.8635626605332904  1.0000
  S   S1        1.0  0.882252173187858  0.5103610554176894  0.10488620646405168  1.0000
  S   S2        1.0  0.11773981978303277  0.4896349576137735  0.8951092495838395  1.0000
  S   S3        1.0  0.3876909780180994  0.7359259468685264  0.3190937074032476  1.0000
  S   S4        1.0  0.6122932123081098  0.2640768341888702  0.6809125697404498  1.0000
  S   S5        1.0  0.36573306590826604  0.14026747510921922  0.03746779926397182  1.0000
  S   S6        1.0  0.6342698591050463  0.8597499784270966  0.9625322328197757  1.0000
  N   N1        1.0  0.6107325449651597  0.34731419463990676  0.08786001763934342  1.0000
  N   N2        1.0  0.38926981916151954  0.6526934594330596  0.9121533849911428  1.0000
  N   N3        1.0  0.6255967044231738  0.6214251012399213  0.2019031134269866  1.0000
  N   N4        1.0  0.3744085817790079  0.37857778496393013  0.7981107255122808  1.0000
  N   N5        1.0  0.39592950043588354  0.438757899920766  0.1955096762773181  1.0000
  N   N6        1.0  0.6040661524798168  0.5612520540903031  0.8045007294843529  1.0000
  O   O1        1.0  0.22280284515496623  0.09690610456063097  0.2603392998805846  1.0000
  O   O2        1.0  0.7771965221367552  0.9030841792219559  0.7396613238511096  1.0000
  O   O3        1.0  0.9726340317384795  0.12493475426372667  0.19401973797106825  1.0000
  O   O4        1.0  0.027369777586756093  0.8750657526385125  0.8059935649617174  1.0000
  O   O5        1.0  0.7175082777571689  0.8675537868557227  0.4705278689250818  1.0000
  O   O6        1.0  0.28247001076260847  0.1324410196025951  0.5294817997835111  1.0000
  O   O7        1.0  0.7693279199375025  0.0507273420157262  0.36597468209213707  1.0000
  O   O8        1.0  0.23067086366221892  0.9492469718739183  0.6340171698230038  1.0000
  O   O9        1.0  0.9427938880601943  0.6384997150043786  0.3817540282134928  1.0000
  O   O10       1.0  0.0572041019002114  0.3615040417868228  0.618234483207374  1.0000
  O   O11       1.0  0.03483683704887849  0.8856095850151959  0.39120753979780437  1.0000
  O   O12       1.0  0.9651778692682669  0.1143805246305405  0.6087946960800467  1.0000
  O   O13       1.0  0.1590940317710832  0.6449940295732118  0.6025349670970002  1.0000
  O   O14       1.0  0.8408960331936512  0.35499447250409577  0.3974537993607328  1.0000
  O   O15       1.0  0.8048039624487585  0.5966105245679072  0.6042961638251398  1.0000
  O   O16       1.0  0.19520999796853997  0.40338010230331617  0.3956954948526814  1.0000
