data_image0
_chemical_formula_structural       Mn2H56C64N6O18F2
_chemical_formula_sum              "Mn2 H56 C64 N6 O18 F2"
_cell_length_a       10.180677210759805
_cell_length_b       12.100060958741086
_cell_length_c       13.616384214525555
_cell_angle_alpha    63.63540688039387
_cell_angle_beta     72.1404500939101
_cell_angle_gamma    83.1046913243545

_space_group_name_H-M_alt    "P 1"
_space_group_IT_number       1

loop_
  _space_group_symop_operation_xyz
  'x, y, z'

loop_
  _atom_site_type_symbol
  _atom_site_label
  _atom_site_symmetry_multiplicity
  _atom_site_fract_x
  _atom_site_fract_y
  _atom_site_fract_z
  _atom_site_occupancy
  Mn  Mn1       1.0  0.917745501409627  0.18472459637589372  0.9000303863838469  1.0000
  Mn  Mn2       1.0  0.08225196009272652  0.81528401043407  0.09997127316977843  1.0000
  H   H1        1.0  0.920775051848473  0.21406333492308258  0.5757896780942886  1.0000
  H   H2        1.0  0.0792266762973384  0.7859413491349871  0.42420237077352857  1.0000
  H   H3        1.0  0.2778386949793017  0.511582299287113  0.2543480752042201  1.0000
  H   H4        1.0  0.7221587557949434  0.4884187608782753  0.7456463605219598  1.0000
  H   H5        1.0  0.27846560306817025  0.5600809680443746  0.5758406572771764  1.0000
  H   H6        1.0  0.7215275322424902  0.43991554590369486  0.42415654730140767  1.0000
  H   H7        1.0  0.274892611931115  0.6800913652913039  0.30916301933993406  1.0000
  H   H8        1.0  0.7251108109785136  0.31990594347693263  0.6908338588489968  1.0000
  H   H9        1.0  0.5108335315582053  0.4880520940714206  0.3352213107264603  1.0000
  H   H10       1.0  0.48916274341534915  0.5119434004840501  0.6647726946045722  1.0000
  H   H11       1.0  0.5098598588348223  0.6356597995932843  0.2104390744443877  1.0000
  H   H12       1.0  0.4901354361621983  0.3643385142977351  0.7895562024350299  1.0000
  H   H13       1.0  0.4817487277252185  0.6036485713032818  0.45600240678000864  1.0000
  H   H14       1.0  0.518253481291687  0.3963422495303988  0.5439944230078098  1.0000
  H   H15       1.0  0.4789219557026668  0.7506368932122883  0.3322208424874019  1.0000
  H   H16       1.0  0.5210874129777067  0.24935290283989534  0.6677756005205495  1.0000
  H   H17       1.0  0.0465246214163244  0.4669751851303232  0.08340939199510447  1.0000
  H   H18       1.0  0.9534863826232468  0.5330255784422847  0.9165771124740018  1.0000
  H   H19       1.0  0.9546357169322236  0.3450435046595572  0.2093670465309997  1.0000
  H   H20       1.0  0.0453690668741658  0.6549602080194817  0.7906247401691858  1.0000
  H   H21       1.0  0.0972221568430669  0.1897848110787592  0.1499663064477446  1.0000
  H   H22       1.0  0.9027822133151205  0.8102125293515742  0.8500332941005554  1.0000
  H   H23       1.0  0.0136774672581055  0.2883824775558423  0.044394175653380295  1.0000
  H   H24       1.0  0.9863248482166044  0.7116130029145823  0.9556036812441846  1.0000
  H   H25       1.0  0.4277044939564404  0.3821724652733209  0.9672667237192202  1.0000
  H   H26       1.0  0.5723057706981579  0.617814559456882  0.03273138482025918  1.0000
  H   H27       1.0  0.3673860444840855  0.24633851271847368  0.09518779386871762  1.0000
  H   H28       1.0  0.6326108651835725  0.7536515275648554  0.904814162865812  1.0000
  H   H29       1.0  0.37452576962752454  0.40588226693419227  0.1506752217117865  1.0000
  H   H30       1.0  0.6254788657199057  0.5941168101148906  0.8493170064186231  1.0000
  H   H31       1.0  0.2863833612391247  0.5142899419235223  0.05403695410193876  1.0000
  H   H32       1.0  0.7136314420671539  0.4857033896495295  0.9459524817072095  1.0000
  H   H33       1.0  0.1537728099935549  0.8738153822979483  0.7262698717577011  1.0000
  H   H34       1.0  0.8462253125675331  0.12619153155876006  0.2737426168431583  1.0000
  H   H35       1.0  0.2729385699289182  0.940327199647264  0.5206113674081294  1.0000
  H   H36       1.0  0.7270525741556355  0.059682523623251924  0.47939707263463305  1.0000
  H   H37       1.0  0.40560802964832016  0.276946157716175  0.4983490936166958  1.0000
  H   H38       1.0  0.5943933507608534  0.7230615573904231  0.5016579632085865  1.0000
  H   H39       1.0  0.2819673701561385  0.20938022105154636  0.707485340126006  1.0000
  H   H40       1.0  0.7180457850642624  0.7906153676341745  0.2925277773249847  1.0000
  H   H41       1.0  0.1659322561010796  0.0751099797886923  0.3833145316134647  1.0000
  H   H42       1.0  0.834063627679761  0.9248838501683853  0.6166912517553483  1.0000
  H   H43       1.0  0.1367524142589858  0.974022373179537  0.2663446053655463  1.0000
  H   H44       1.0  0.8632446663231264  0.025977010384060903  0.7336608741284323  1.0000
  H   H45       1.0  0.5756238430655429  0.9926259768605592  0.1128396385292091  1.0000
  H   H46       1.0  0.42437240990813757  0.0073799153371325995  0.8871655845370158  1.0000
  H   H47       1.0  0.6023373107201379  0.1120698233525346  0.21643591612187418  1.0000
  H   H48       1.0  0.39765767854139966  0.887931497580226  0.7835729001750451  1.0000
  H   H49       1.0  0.25544456863950427  0.2492400232483405  0.9744756305215106  1.0000
  H   H50       1.0  0.7445615080098876  0.750747102897897  0.025525539710130735  1.0000
  H   H51       1.0  0.21565848688504016  0.39604513269434  0.9200815944930201  1.0000
  H   H52       1.0  0.7843487943838952  0.6039456543955808  0.07991709877195065  1.0000
  H   H53       1.0  0.6470068324105469  0.24037334978636696  0.9424156989211383  1.0000
  H   H54       1.0  0.35298724233040696  0.7596250884866368  0.05758640110866502  1.0000
  H   H55       1.0  0.7106548289055041  0.24400312799919993  0.03349138224589143  1.0000
  H   H56       1.0  0.2893404426367283  0.7560008638803314  0.966510413909077  1.0000
  C   C1        1.0  0.11815538385257442  0.40952688254774483  0.7748781041268132  1.0000
  C   C2        1.0  0.8818429589867592  0.5904723526270815  0.22511908367683026  1.0000
  C   C3        1.0  0.12486314599372861  0.4166855017214602  0.6604824339468963  1.0000
  C   C4        1.0  0.8751331211615537  0.5833118854968474  0.33951374447598687  1.0000
  C   C5        1.0  0.039506287469151906  0.34345560990907137  0.6436732002850933  1.0000
  C   C6        1.0  0.9604920382787442  0.6565426909377338  0.3563236352426032  1.0000
  C   C7        1.0  0.07034298446906459  0.35464302239967793  0.5278548503799385  1.0000
  C   C8        1.0  0.9296544072125812  0.6453571274444627  0.47214070161025756  1.0000
  C   C9        1.0  0.99840721387433  0.2799887100539494  0.5056454220803204  1.0000
  C   C10       1.0  0.0015953799719454975  0.7200103876946642  0.4943465012212158  1.0000
  C   C11       1.0  0.028987595217507996  0.2875977766434517  0.3977195947714663  1.0000
  C   C12       1.0  0.9710170191293485  0.712401312409014  0.6022733676289179  1.0000
  C   C13       1.0  0.13188681907584507  0.36924827602889115  0.3025545970549929  1.0000
  C   C14       1.0  0.8681167259281181  0.630749907050408  0.6974389620599837  1.0000
  C   C15       1.0  0.2024598276839171  0.444225873864248  0.3249464516752454  1.0000
  C   C16       1.0  0.7975376152720628  0.5557770789639778  0.6750501571427918  1.0000
  C   C17       1.0  0.17371616863852782  0.4365063379831824  0.4355072280506889  1.0000
  C   C18       1.0  0.8262813412283235  0.5634956325034466  0.5644860914114744  1.0000
  C   C19       1.0  0.2192712289332306  0.49903882360715107  0.5653234237580449  1.0000
  C   C20       1.0  0.7807302706604416  0.5009603265031117  0.43467091707399413  1.0000
  C   C21       1.0  0.33356731363183206  0.6103474086102878  0.3618402003260713  1.0000
  C   C22       1.0  0.6664341058686603  0.3896508431821174  0.6381559910399588  1.0000
  C   C23       1.0  0.47570276666949235  0.5827693222718722  0.3027038380673161  1.0000
  C   C24       1.0  0.5242924599617427  0.4172252543070344  0.6972900297083271  1.0000
  C   C25       1.0  0.4574603768671394  0.6518007028696289  0.3747677122615514  1.0000
  C   C26       1.0  0.542543780375432  0.3481873182872163  0.6252298340672696  1.0000
  C   C27       1.0  0.055247627017436685  0.37078382978651103  0.14549413846164336  1.0000
  C   C28       1.0  0.9447580737637509  0.629217099567164  0.8544985795001024  1.0000
  C   C29       1.0  0.08934557221978422  0.28486286460623944  0.08787635441322549  1.0000
  C   C30       1.0  0.9106609102595584  0.7151325264515408  0.9121191750621523  1.0000
  C   C31       1.0  0.33824173873271224  0.3386085332632121  0.0412464175218688  1.0000
  C   C32       1.0  0.6617655635368037  0.6613822418233255  0.9587515414731199  1.0000
  C   C33       1.0  0.2935526197420942  0.4153957149528154  0.10963359091777386  1.0000
  C   C34       1.0  0.7064550370830248  0.5846005220611803  0.8903576704931169  1.0000
  C   C35       1.0  0.205919914542946  0.04032885898669041  0.727959538925191  1.0000
  C   C36       1.0  0.7940793691816027  0.9596770201667795  0.27204724278931286  1.0000
  C   C37       1.0  0.20519532470237317  0.9638483065032308  0.675418025441104  1.0000
  C   C38       1.0  0.7948007851763919  0.03615672338678171  0.324591250969064  1.0000
  C   C39       1.0  0.2723968986595935  0.001579041652199502  0.5598339181818375  1.0000
  C   C40       1.0  0.7275985306147775  0.9984324128481675  0.440169961910712  1.0000
  C   C41       1.0  0.3420626021761777  0.11669441994809662  0.4948681154141426  1.0000
  C   C42       1.0  0.657923782210787  0.8833208230004246  0.5051332321073333  1.0000
  C   C43       1.0  0.34757627723627144  0.19007948660568272  0.5494589485754277  1.0000
  C   C44       1.0  0.6524213708170663  0.8099346781588753  0.4505418875539391  1.0000
  C   C45       1.0  0.27948541000794347  0.1528584300095943  0.6643815845405002  1.0000
  C   C46       1.0  0.7205209205589258  0.8471483770421813  0.3356306548358817  1.0000
  C   C47       1.0  0.41330909416198125  0.1635623919669911  0.3706360783965863  1.0000
  C   C48       1.0  0.586682928805338  0.8364436256535156  0.629373674901764  1.0000
  C   C49       1.0  0.38763113089916607  0.098372402135567  0.3077566072376429  1.0000
  C   C50       1.0  0.6123606044234151  0.9016271712158853  0.6922565542889318  1.0000
  C   C51       1.0  0.2556059638343767  0.0583213628864385  0.3234651397693185  1.0000
  C   C52       1.0  0.7443922280917831  0.9416789026435526  0.6765382744701115  1.0000
  C   C53       1.0  0.2389156070302505  0.0011569091677828003  0.2591298499575103  1.0000
  C   C54       1.0  0.7610803622078208  0.9988415924294289  0.7408776947910173  1.0000
  C   C55       1.0  0.3543315015079073  0.9759734562711201  0.18417087368238325  1.0000
  C   C56       1.0  0.645666564414789  0.024026881279226604  0.8158369461769297  1.0000
  C   C57       1.0  0.4863981457300071  0.013158726529546506  0.1705184864479038  1.0000
  C   C58       1.0  0.5135998532818249  0.98684259336239  0.8294926227672691  1.0000
  C   C59       1.0  0.5015283235875002  0.07849978376427913  0.2284241329118829  1.0000
  C   C60       1.0  0.49846641221218846  0.9214969615554763  0.7715887961651617  1.0000
  C   C61       1.0  0.1389683100640795  0.0008811652614895027  0.8529514103587845  1.0000
  C   C62       1.0  0.861028134824636  0.9991340582130878  0.14705660119690828  1.0000
  C   C63       1.0  0.3339313251877202  0.9107762770971707  0.11893466385659927  1.0000
  C   C64       1.0  0.6660691446100059  0.08922760901825912  0.8810645901556386  1.0000
  N   N1        1.0  0.2266013159212221  0.3204499331713393  0.9981043459643075  1.0000
  N   N2        1.0  0.7734019033459775  0.6795408833142674  0.0018930033729416603  1.0000
  N   N3        1.0  0.16305016774367687  0.36720528973428673  0.1971046873771414  1.0000
  N   N4        1.0  0.8369585506060703  0.6327937459157198  0.8028881504110076  1.0000
  N   N5        1.0  0.24460007239328974  0.5111098279931455  0.4576930654718652  1.0000
  N   N6        1.0  0.7553951806025764  0.4888885099046549  0.5423036799475156  1.0000
  O   O1        1.0  0.023757303758365808  0.34189629972122776  0.8632759162768195  1.0000
  O   O2        1.0  0.9762271138565735  0.6581160889223912  0.13671966396807286  1.0000
  O   O3        1.0  0.7099342851226923  0.29012665739497123  0.9538368377781979  1.0000
  O   O4        1.0  0.2900568272331725  0.7098755312343671  0.04616511270710781  1.0000
  O   O5        1.0  0.20710672109326816  0.46969687583225556  0.7812931178614521  1.0000
  O   O6        1.0  0.7929024688543862  0.5302854696024895  0.21870197547890055  1.0000
  O   O7        1.0  0.9418477647956821  0.270257479028885  0.7215487977428695  1.0000
  O   O8        1.0  0.058154571679608615  0.7297379894381495  0.27844832488471377  1.0000
  O   O9        1.0  0.10026919257656168  0.0846330829761044  0.88715076496716  1.0000
  O   O10       1.0  0.8997239891000106  0.9153775659262993  0.1128590664503974  1.0000
  O   O11       1.0  0.13065232806277996  0.8846796338668739  0.9172276979389551  1.0000
  O   O12       1.0  0.8693409586166823  0.11533095501857103  0.08277846212870088  1.0000
  O   O13       1.0  0.4943416756181804  0.253623979777892  0.3197356368837988  1.0000
  O   O14       1.0  0.5056686222200212  0.7463752992471984  0.6802736596727855  1.0000
  O   O15       1.0  0.2223004838532745  0.9354710722038182  0.08903347807215309  1.0000
  O   O16       1.0  0.7777043644097716  0.06453732411875282  0.9109608042777425  1.0000
  O   O17       1.0  0.42580380127907363  0.8369508516875329  0.09811178938748806  1.0000
  O   O18       1.0  0.574193334486516  0.16305038852873108  0.9018936603884029  1.0000
  F   F1        1.0  0.960234780581473  0.20843103589807307  0.3820840243864083  1.0000
  F   F2        1.0  0.03976773317162241  0.7915671635326975  0.617909749449126  1.0000
