data_image0
_chemical_formula_structural       Li4H28C28N4O10
_chemical_formula_sum              "Li4 H28 C28 N4 O10"
_cell_length_a       5.206204043489169
_cell_length_b       8.907221715758158
_cell_length_c       15.3045771008838
_cell_angle_alpha    74.69082400576592
_cell_angle_beta     87.52939763562898
_cell_angle_gamma    85.13003058636015

_space_group_name_H-M_alt    "P 1"
_space_group_IT_number       1

loop_
  _space_group_symop_operation_xyz
  'x, y, z'

loop_
  _atom_site_type_symbol
  _atom_site_label
  _atom_site_symmetry_multiplicity
  _atom_site_fract_x
  _atom_site_fract_y
  _atom_site_fract_z
  _atom_site_occupancy
  Li  Li1       1.0  0.40422014836121883  0.8834355271222945  0.4547736541703459  1.0000
  Li  Li2       1.0  0.5957495886745293  0.11655051982027943  0.5452334450844347  1.0000
  Li  Li3       1.0  0.9527321114976035  0.7770922825480683  0.5370113003844851  1.0000
  Li  Li4       1.0  0.04721012980350283  0.22289724585903767  0.4629878796548895  1.0000
  H   H1        1.0  0.08340655209436681  0.7698869639637421  0.013039166137730334  1.0000
  H   H2        1.0  0.9166192227480892  0.23011090525523764  0.9869599822037003  1.0000
  H   H3        1.0  0.18534587309198972  0.08582528550272876  0.2855732211225829  1.0000
  H   H4        1.0  0.8146472485019987  0.9141725074035064  0.7144277828235275  1.0000
  H   H5        1.0  0.6336014513564977  0.9506559241389212  0.2107385686158594  1.0000
  H   H6        1.0  0.36638237915862965  0.0493664578804598  0.7892405451266102  1.0000
  H   H7        1.0  0.396375476617223  0.63768235798085  0.13155751783261144  1.0000
  H   H8        1.0  0.6036181101349101  0.36231305381330975  0.8684536425183539  1.0000
  H   H9        1.0  0.4303525136258131  0.3089294791242453  0.01344345848329451  1.0000
  H   H10       1.0  0.5696434216887598  0.6910613229032023  0.9865566044016987  1.0000
  H   H11       1.0  0.6995367914258994  0.9329057709707982  0.052059894441065076  1.0000
  H   H12       1.0  0.3004726874830439  0.0670968243786945  0.9479198527698571  1.0000
  H   H13       1.0  0.7541010451853153  0.4408358728636586  0.07415669205148841  1.0000
  H   H14       1.0  0.24589360673072497  0.5591642836483357  0.9258386992061106  1.0000
  H   H15       1.0  0.13721086459129597  0.13148524929572145  0.11967798013223072  1.0000
  H   H16       1.0  0.8627810728298401  0.8685067118600287  0.8803219718599922  1.0000
  H   H17       1.0  0.5350975571459813  0.5918555851921781  0.2740164196280547  1.0000
  H   H18       1.0  0.4648105229732381  0.40811858383420224  0.7260078792041613  1.0000
  H   H19       1.0  0.4481573314179244  0.7137657645880394  0.3382613792558687  1.0000
  H   H20       1.0  0.5517548291577442  0.2862201338697474  0.6617519170589291  1.0000
  H   H21       1.0  0.8677489081008007  0.38222915335856555  0.31196529880470786  1.0000
  H   H22       1.0  0.13222776986183502  0.6177464613528443  0.6880302080003134  1.0000
  H   H23       1.0  0.9580221489324147  0.4773350225682405  0.20245239308602692  1.0000
  H   H24       1.0  0.041977168814234696  0.522659289847546  0.7975470791503981  1.0000
  H   H25       1.0  0.7628366192017069  0.4897294190657462  0.6148204919603514  1.0000
  H   H26       1.0  0.2369782813752438  0.5103217308410348  0.3851700845079123  1.0000
  H   H27       1.0  0.8256524478556955  0.534342904513764  0.5090591528077866  1.0000
  H   H28       1.0  0.17564278202507924  0.46527455315990807  0.49100387984731253  1.0000
  C   C1        1.0  0.19931159013060556  0.7226166899394427  0.23753124487247135  1.0000
  C   C2        1.0  0.8006282396370709  0.2773774667758743  0.7624751103791996  1.0000
  C   C3        1.0  0.9146225721488791  0.8215504765010377  0.35510286659738455  1.0000
  C   C4        1.0  0.08531956948501572  0.17849746517813259  0.6448815318096734  1.0000
  C   C5        1.0  0.05103775383315683  0.7811709373409172  0.08199486263649192  1.0000
  C   C6        1.0  0.9489654520860782  0.2188374052718416  0.9180004471102521  1.0000
  C   C7        1.0  0.9784449113773378  0.8104712105480658  0.2602311934447457  1.0000
  C   C8        1.0  0.021513717517159102  0.18953939047972312  0.7397605849421325  1.0000
  C   C9        1.0  0.30723286958959767  0.16436687997633465  0.238211870350149  1.0000
  C   C10       1.0  0.6927535627702215  0.8356379048286013  0.7617881780228047  1.0000
  C   C11       1.0  0.5230734256918198  0.18917812591691072  0.3745066877912748  1.0000
  C   C12       1.0  0.47688956702857865  0.8108441211055178  0.6254917382197221  1.0000
  C   C13       1.0  0.4940221954601611  0.23426455984062503  0.27462442586485036  1.0000
  C   C14       1.0  0.5059542876132497  0.765742548366255  0.7253734718420048  1.0000
  C   C15       1.0  0.80203712151566  0.8835061668783054  0.19225490596059563  1.0000
  C   C16       1.0  0.19793204280492924  0.11651148480876827  0.8077310506739722  1.0000
  C   C17       1.0  0.22815876329163126  0.7072972064038012  0.148277958406787  1.0000
  C   C18       1.0  0.7718276096593258  0.2927087179680327  0.8517277979613453  1.0000
  C   C19       1.0  0.44466922462237335  0.2894454379786565  0.08652820577849239  1.0000
  C   C20       1.0  0.5553195073861871  0.7105558735362221  0.9134671068326129  1.0000
  C   C21       1.0  0.8373375788783123  0.8719254738308916  0.10356255103629057  1.0000
  C   C22       1.0  0.1626711657515685  0.12808407016906642  0.8964279106236503  1.0000
  C   C23       1.0  0.6272411573251873  0.3631719865196955  0.12029190042681392  1.0000
  C   C24       1.0  0.3727522090284907  0.6368234901697251  0.8797055320362901  1.0000
  C   C25       1.0  0.6542858814073257  0.33947574592819757  0.2145530636918309  1.0000
  C   C26       1.0  0.3456957780064016  0.660520879568331  0.7854430794457344  1.0000
  C   C27       1.0  0.2806665544991773  0.19013894587240543  0.1453887158288509  1.0000
  C   C28       1.0  0.7193302257720688  0.8098600319346048  0.8546100871125262  1.0000
  N   N1        1.0  0.3801848895297937  0.6429541817054696  0.302251221410188  1.0000
  N   N2        1.0  0.6197236311951144  0.3570164913639217  0.6977722961601387  1.0000
  N   N3        1.0  0.8190486580352286  0.425238325674087  0.24576517765614617  1.0000
  N   N4        1.0  0.18092587153864062  0.5747687876781241  0.7542307911701585  1.0000
  O   O1        1.0  0.09528977203414253  0.8182499738959949  0.40963409339201473  1.0000
  O   O2        1.0  0.9046343629537932  0.18178971470151586  0.5903603533914892  1.0000
  O   O3        1.0  0.34855009851136737  0.11192182417929789  0.4246341713601254  1.0000
  O   O4        1.0  0.6514165669435814  0.8881027256790472  0.5753723376039305  1.0000
  O   O5        1.0  0.6771445302938234  0.8313680961294664  0.3780772983619301  1.0000
  O   O6        1.0  0.3227905705547371  0.16874532488647984  0.6218756738249597  1.0000
  O   O7        1.0  0.719269624611691  0.22450603874543157  0.4099198539556639  1.0000
  O   O8        1.0  0.2806837659282735  0.775545377289518  0.5900749378697796  1.0000
  O   O9        1.0  0.859291516573073  0.5635914921876832  0.564347446645755  1.0000
  O   O10       1.0  0.14055344864036812  0.43650146096253195  0.4356989915762314  1.0000
