data_image0
_chemical_formula_structural       CoH24C30S2N6O8
_chemical_formula_sum              "Co1 H24 C30 S2 N6 O8"
_cell_length_a       8.819069102164082
_cell_length_b       11.309052344118554
_cell_length_c       11.579226497969826
_cell_angle_alpha    115.94925941092946
_cell_angle_beta     95.20656568814279
_cell_angle_gamma    102.1379307176225

_space_group_name_H-M_alt    "P 1"
_space_group_IT_number       1

loop_
  _space_group_symop_operation_xyz
  'x, y, z'

loop_
  _atom_site_type_symbol
  _atom_site_label
  _atom_site_symmetry_multiplicity
  _atom_site_fract_x
  _atom_site_fract_y
  _atom_site_fract_z
  _atom_site_occupancy
  Co  Co1       1.0  0.9999997268451324  5.735853320965468e-07  0.9999993139309566  1.0000
  H   H1        1.0  0.8309950081326036  0.0952018401583814  0.2365419951265793  1.0000
  H   H2        1.0  0.1689996189496128  0.9047958626334778  0.7634597654103104  1.0000
  H   H3        1.0  0.7557292850191146  0.048628804040553995  0.418600204805827  1.0000
  H   H4        1.0  0.2442660157020171  0.9513709468341744  0.581402460872944  1.0000
  H   H5        1.0  0.9636687591712699  0.7105639837271057  0.273398123436472  1.0000
  H   H6        1.0  0.036334477410001405  0.2894357102091689  0.7266032979791959  1.0000
  H   H7        1.0  0.03189438158140938  0.7718260568780337  0.09882256181804651  1.0000
  H   H8        1.0  0.9681018854985339  0.22817672666801772  0.9011779874446191  1.0000
  H   H9        1.0  0.6994226134962602  0.7144752176898592  0.5867367178433228  1.0000
  H   H10       1.0  0.3005767713966208  0.28552656531976345  0.4132670641779086  1.0000
  H   H11       1.0  0.9069914191795193  0.7673906627728401  0.6537357502293943  1.0000
  H   H12       1.0  0.09300970317377018  0.23260599394487252  0.34626684866995555  1.0000
  H   H13       1.0  0.9194739888990215  0.5369687514803304  0.4702698693596972  1.0000
  H   H14       1.0  0.08052655999998139  0.4630298600037577  0.529724878959037  1.0000
  H   H15       1.0  0.8275494861080902  0.529707643509539  0.5996525371972723  1.0000
  H   H16       1.0  0.17245078109591813  0.47028999324935933  0.4003461012116744  1.0000
  H   H17       1.0  0.5155165484732009  0.06151450295875799  0.272846493483577  1.0000
  H   H18       1.0  0.48448071116681035  0.938484232969046  0.7271575974891036  1.0000
  H   H19       1.0  0.25215997877607066  0.9319880150992575  0.12044673152321657  1.0000
  H   H20       1.0  0.7478411284008573  0.0680157317712542  0.8795510777822457  1.0000
  H   H21       1.0  0.21177220047491122  0.26945386161234103  0.0767736213204913  1.0000
  H   H22       1.0  0.7882295073181494  0.7305447642822501  0.923222934462899  1.0000
  H   H23       1.0  0.4744797095928988  0.41206001069870263  0.22569297129098229  1.0000
  H   H24       1.0  0.5255205796608992  0.5879376457866884  0.7743074041824229  1.0000
  C   C1        1.0  0.858426130827283  0.010827693498477198  0.247744616777851  1.0000
  C   C2        1.0  0.1415692411552811  0.9891689306197123  0.7522524189271492  1.0000
  C   C3        1.0  0.8155393265505994  0.9842650845565828  0.34864187264453506  1.0000
  C   C4        1.0  0.18445628894021132  0.015735670633084505  0.6513595085407076  1.0000
  C   C5        1.0  0.8525235038883425  0.8747927282909135  0.3595582721636249  1.0000
  C   C6        1.0  0.1474772995438016  0.12521002412790952  0.6404416901675916  1.0000
  C   C7        1.0  0.9317940547141035  0.7964988934761763  0.2686902907290616  1.0000
  C   C8        1.0  0.0682080009233133  0.20350076632309566  0.7313075861574987  1.0000
  C   C9        1.0  0.9710006920205245  0.8314587978430766  0.17168644113348105  1.0000
  C   C10       1.0  0.0289964683954409  0.16853984931549354  0.8283098330491327  1.0000
  C   C11       1.0  0.8081398180516641  0.8473710898505186  0.46881935542043596  1.0000
  C   C12       1.0  0.1918670174461994  0.1526326698930234  0.5311822800149172  1.0000
  C   C13       1.0  0.8144168560836177  0.6998277692937761  0.5649301723236206  1.0000
  C   C14       1.0  0.18558591729229326  0.3001739780413644  0.4350720838337381  1.0000
  C   C15       1.0  0.8185767440444638  0.5544190353831697  0.5178415196522295  1.0000
  C   C16       1.0  0.18142399738979256  0.4455765578401056  0.4821571525472663  1.0000
  C   C17       1.0  0.6627431340693803  0.33076479309784906  0.36624737783048994  1.0000
  C   C18       1.0  0.33725418580715444  0.6692308062101662  0.6337502146361871  1.0000
  C   C19       1.0  0.5143891089978325  0.2486024118037093  0.2641447332467237  1.0000
  C   C20       1.0  0.485606158648622  0.7513973094812771  0.735855326835356  1.0000
  C   C21       1.0  0.4527539971089994  0.11063667760013371  0.229843686174938  1.0000
  C   C22       1.0  0.5472355863160842  0.8893630702648212  0.7701560219061747  1.0000
  C   C23       1.0  0.3053859006767468  0.0382480774026561  0.14613768036896596  1.0000
  C   C24       1.0  0.6946138702472383  0.9617515831653594  0.8538591871849731  1.0000
  C   C25       1.0  0.28300569484726884  0.22733041210425145  0.12188263116372158  1.0000
  C   C26       1.0  0.7169976019705332  0.7726661452122345  0.8781122917459498  1.0000
  C   C27       1.0  0.428856396042299  0.3061928976368121  0.20520337297887173  1.0000
  C   C28       1.0  0.5711471663335388  0.6938078104776509  0.7947976324755075  1.0000
  C   C29       1.0  0.915285298381491  0.27019837215698317  0.12448945459623664  1.0000
  C   C30       1.0  0.08471964019539512  0.7298135617290243  0.8755120456769278  1.0000
  S   S1        1.0  0.877482881693176  0.4160700462372234  0.17364295573121782  1.0000
  S   S2        1.0  0.12252790567771403  0.583935627282223  0.8263493736598377  1.0000
  N   N1        1.0  0.93610790666051  0.9368941855827797  0.1608479626781046  1.0000
  N   N2        1.0  0.06388768678051092  0.06310654988039492  0.8391516814426794  1.0000
  N   N3        1.0  0.2184733027998007  0.09613446126184753  0.0956500926851191  1.0000
  N   N4        1.0  0.7815246796907686  0.9038631762657873  0.9043475363912137  1.0000
  N   N5        1.0  0.9428069398167762  0.16229806395789842  0.08745467724203589  1.0000
  N   N6        1.0  0.05718701362651753  0.8376975907510912  0.9125461781529793  1.0000
  O   O1        1.0  0.8475756147074023  0.7358934255149451  0.4624268586220026  1.0000
  O   O2        1.0  0.15242549662099236  0.2641032213395178  0.5375748717451216  1.0000
  O   O3        1.0  0.7444482639286463  0.9170361492257655  0.552920533581016  1.0000
  O   O4        1.0  0.2555660280870384  0.0829727830509697  0.44709066496784533  1.0000
  O   O5        1.0  0.6740159413006453  0.4657891037004022  0.42132472294773043  1.0000
  O   O6        1.0  0.3259791489869174  0.534206545692591  0.5786762028474756  1.0000
  O   O7        1.0  0.758107920165621  0.28154460903459727  0.40031038551493475  1.0000
  O   O8        1.0  0.2418972863594107  0.7184540798180024  0.5996933297268825  1.0000
