data_image0
_chemical_formula_structural       Zn4H34C44BrN21O10
_chemical_formula_sum              "Zn4 H34 C44 Br1 N21 O10"
_cell_length_a       14.922310327214127
_cell_length_b       14.534300851473429
_cell_length_c       14.843491835957026
_cell_angle_alpha    110.72820124521226
_cell_angle_beta     103.35659916690724
_cell_angle_gamma    112.23083164328443

_space_group_name_H-M_alt    "P 1"
_space_group_IT_number       1

loop_
  _space_group_symop_operation_xyz
  'x, y, z'

loop_
  _atom_site_type_symbol
  _atom_site_label
  _atom_site_symmetry_multiplicity
  _atom_site_fract_x
  _atom_site_fract_y
  _atom_site_fract_z
  _atom_site_occupancy
  Zn  Zn1       1.0  0.3626584160387907  0.8692595520102486  0.0035512863743392665  1.0000
  Zn  Zn2       1.0  0.6634593121395725  0.13948520540367312  0.9910397924068877  1.0000
  Zn  Zn3       1.0  0.4988413567674925  0.15377890349914478  0.1459851815921951  1.0000
  Zn  Zn4       1.0  0.4987819498846805  0.8576917737583898  0.8614350140935444  1.0000
  H   H1        1.0  0.19286149646888626  0.832223008176385  0.8016631108344897  1.0000
  H   H2        1.0  0.540451604479813  0.20267650822423622  0.8274412307735235  1.0000
  H   H3        1.0  0.31605338672009964  0.6217746737355158  0.6440303622035232  1.0000
  H   H4        1.0  0.7567947447704668  0.4397555017575528  0.058506762712973455  1.0000
  H   H5        1.0  0.1331653686138026  0.6345002957472801  0.8312479769914134  1.0000
  H   H6        1.0  0.328706389407003  0.8366734626205242  0.6705490581279747  1.0000
  H   H7        1.0  0.3184319052323091  0.19244075939918298  0.006771734798391478  1.0000
  H   H8        1.0  0.5015040330854036  0.8491785607056104  0.1941177687475247  1.0000
  H   H9        1.0  0.4615053819333782  0.16796166848779134  0.36186064166067683  1.0000
  H   H10       1.0  0.6369518921034752  0.7667612531841569  0.7341906030830644  1.0000
  H   H11       1.0  0.8610671546745794  0.12898768941307284  0.9356631720737811  1.0000
  H   H12       1.0  0.2346267464956213  0.8071770919245652  0.15079100669067463  1.0000
  H   H13       1.0  0.690346212864931  0.8543184336803619  0.010708368437995937  1.0000
  H   H14       1.0  0.6711622480521201  0.19166755389501586  0.35352575460173347  1.0000
  H   H15       1.0  0.126268434688285  0.5543690220079752  0.4884407020167956  1.0000
  H   H16       1.0  0.8956737675745998  0.4832286972552424  0.43537692637711  1.0000
  H   H17       1.0  0.9563807685866409  0.44753578951523554  0.35038786814716616  1.0000
  H   H18       1.0  0.16765319829756464  0.42142750133008616  0.5287153778242485  1.0000
  H   H19       1.0  0.019340476239626977  0.2973504801482179  0.3660278373797681  1.0000
  H   H20       1.0  0.9973599846351464  0.4323909271490508  0.6800271423931296  1.0000
  H   H21       1.0  0.968332071037274  0.5289098591076212  0.6504848019844831  1.0000
  H   H22       1.0  0.8160606094976615  0.37276344736886796  0.505654892658555  1.0000
  H   H23       1.0  0.10164616865775147  0.35651240543680973  0.5926693210172332  1.0000
  H   H24       1.0  0.9641398088149559  0.21791713430914675  0.42505224369180195  1.0000
  H   H25       1.0  0.3886732452166159  0.06311869547933209  0.458930084316954  1.0000
  H   H26       1.0  0.24111962799078404  0.8479912018026567  0.520837137149833  1.0000
  H   H27       1.0  0.40844239846445884  0.1004434350568957  0.6100391065729057  1.0000
  H   H28       1.0  0.799277429186198  0.6378463897675744  0.13256375183514293  1.0000
  H   H29       1.0  0.6275192646657929  0.600182728308546  0.22009103187939882  1.0000
  H   H30       1.0  0.7769997189929542  0.7830800278097032  0.11218371108581966  1.0000
  H   H31       1.0  0.6245756945658201  0.7523360418879506  0.22203115448304803  1.0000
  H   H32       1.0  0.9566257068729129  0.10539436070271783  0.8515454926755909  1.0000
  H   H33       1.0  0.12682739188915804  0.14504613801804564  0.8949510335680841  1.0000
  H   H34       1.0  0.05524787729505925  0.8953659465511024  0.7514010586171267  1.0000
  C   C1        1.0  0.23925628070531246  0.9214601061836091  0.8625972290793983  1.0000
  C   C2        1.0  0.4975172781653042  0.11267562918037995  0.8036171514717766  1.0000
  C   C3        1.0  0.6040184961660344  0.388449434589198  0.18116204820786663  1.0000
  C   C4        1.0  0.2863509266641416  0.6390375415588564  0.7047515028907371  1.0000
  C   C5        1.0  0.7048674671318907  0.4113678391839102  0.09517723414342791  1.0000
  C   C6        1.0  0.19323522580499014  0.6449682955704503  0.8000510323484065  1.0000
  C   C7        1.0  0.3897385333191396  0.9257681432023119  0.7234078984922478  1.0000
  C   C8        1.0  0.30251807118045815  0.10557038894644663  0.9671249708872481  1.0000
  C   C9        1.0  0.21428609737548507  0.00823690403365148  0.8739057922971797  1.0000
  C   C10       1.0  0.4106827432496445  0.020609751322098097  0.7075321061549289  1.0000
  C   C11       1.0  0.6692764259478852  0.4726621706555107  0.16086784077086963  1.0000
  C   C12       1.0  0.1819774332234942  0.5872155783279851  0.6964572489415916  1.0000
  C   C13       1.0  0.5388209426874796  0.856722159651227  0.1403192329500842  1.0000
  C   C14       1.0  0.8027691356331559  0.22328043379238235  0.20918864788027497  1.0000
  C   C15       1.0  0.41186955332729985  0.08071797798418602  0.29671959335745174  1.0000
  C   C16       1.0  0.6783883042368333  0.8579006942199427  0.7872639665901391  1.0000
  C   C17       1.0  0.7931280589747091  0.042821815056086635  0.8901954896815953  1.0000
  C   C18       1.0  0.29462581009774885  0.896301599832313  0.188590400515686  1.0000
  C   C19       1.0  0.6362744212352922  0.8601588482197187  0.047544159201429285  1.0000
  C   C20       1.0  0.7046186019040805  0.19487181440098317  0.29637418560034956  1.0000
  C   C21       1.0  0.6234708281797978  0.8382417854183828  0.13077474777311704  1.0000
  C   C22       1.0  0.8117210546964914  0.25147289241441223  0.3143921154827611  1.0000
  C   C23       1.0  0.3343011240427245  0.9839931228829855  0.2938380020360755  1.0000
  C   C24       1.0  0.7830840317318676  0.9418822467230539  0.8167518116768521  1.0000
  C   C25       1.0  0.06307133771662879  0.5396900505107994  0.5165377312568609  1.0000
  C   C26       1.0  0.9524337264318207  0.4540378655994601  0.4248889320153213  1.0000
  C   C27       1.0  0.09346007714636782  0.3925899169253952  0.5396493010828892  1.0000
  C   C28       1.0  0.9830117457132134  0.45783735823983546  0.619249631272005  1.0000
  C   C29       1.0  0.08253647463182281  0.49743112275864826  0.5969874420560899  1.0000
  C   C30       1.0  0.9087188986276831  0.3348669449118518  0.41891970833282954  1.0000
  C   C31       1.0  0.9965297864761454  0.3027654544520145  0.4318551993399283  1.0000
  C   C32       1.0  0.8827461138247232  0.3567111895832795  0.51781742152226  1.0000
  C   C33       1.0  0.2589105267240442  0.910960105047444  0.41208904808704017  1.0000
  C   C34       1.0  0.32333202893512697  0.9852351812664466  0.3872447926943111  1.0000
  C   C35       1.0  0.2863914797731155  0.9256233964994889  0.5186286650504713  1.0000
  C   C36       1.0  0.3664684366873416  0.02005293304753048  0.6097179799646997  1.0000
  C   C37       1.0  0.7432595107521466  0.6561984972010747  0.1607572750355645  1.0000
  C   C38       1.0  0.6807313889187868  0.5823100183061811  0.1867107078157845  1.0000
  C   C39       1.0  0.7333139791044517  0.747765447274162  0.1526583691548212  1.0000
  C   C40       1.0  0.6638177946493045  0.7816028949121047  0.17583404267342942  1.0000
  C   C41       1.0  0.9616414615084921  0.02831380694988877  0.8180314958367562  1.0000
  C   C42       1.0  0.866386022597702  0.9323354238686932  0.7860338206075429  1.0000
  C   C43       1.0  0.0692620191553033  0.054470066721648794  0.8394721277441235  1.0000
  C   C44       1.0  0.10978477377154411  0.9833774270644611  0.8146601326722093  1.0000
  Br  Br1       1.0  0.0748078363421598  0.6911566508854747  0.5796397096312091  1.0000
  N   N1        1.0  0.33150458131814986  0.9627925314943155  0.9431027701398095  1.0000
  N   N2        1.0  0.5260019983716404  0.07436379215654632  0.8695919111591194  1.0000
  N   N3        1.0  0.6009259621377369  0.2887803797684683  0.13053201020850497  1.0000
  N   N4        1.0  0.3542891549024958  0.7218751448348185  0.805571622363992  1.0000
  N   N5        1.0  0.6625122848620536  0.3031393951556892  0.07795553461419064  1.0000
  N   N6        1.0  0.2964567172192007  0.7253275916565441  0.8650098656164221  1.0000
  N   N7        1.0  0.4595268908709614  0.9591750702123675  0.8194688783026437  1.0000
  N   N8        1.0  0.3711461144797071  0.07655785450954511  0.006837021603075847  1.0000
  N   N9        1.0  0.5037224530400125  0.8839896381101084  0.06748097594605457  1.0000
  N   N10       1.0  0.6989877287974338  0.15532136717117598  0.1380340315757352  1.0000
  N   N11       1.0  0.4175055717341679  0.05300089761796298  0.20322138678546522  1.0000
  N   N12       1.0  0.6314467752277154  0.9062048107861569  0.8386919647781143  1.0000
  N   N13       1.0  0.7022598551379602  0.021065225630543524  0.9026715450980733  1.0000
  N   N14       1.0  0.34533808776360797  0.9377965352812083  0.13669649237097306  1.0000
  N   N15       1.0  0.5635654076372633  0.8860196480284303  0.010377882006359775  1.0000
  N   N16       1.0  0.638863309769576  0.13910754561316446  0.19088595370833175  1.0000
  N   N17       1.0  0.877938200187572  0.2655568763009271  0.16948681413504138  1.0000
  N   N18       1.0  0.8412671405626427  0.2520494568593392  0.5329396731832788  1.0000
  N   N19       1.0  0.16094152033097234  0.804670802369678  0.3304269554606237  1.0000
  N   N20       1.0  0.546767275359045  0.3930373437078245  0.24361580931115875  1.0000
  N   N21       1.0  0.849756552476215  0.8186681088257117  0.7322761707741565  1.0000
  O   O1        1.0  0.8419358784536045  0.2504683320874578  0.07595442724474588  1.0000
  O   O2        1.0  0.9750791078904302  0.318858157320946  0.22603414034934854  1.0000
  O   O3        1.0  0.905850962981809  0.2255924618014759  0.5671257153229377  1.0000
  O   O4        1.0  0.7446602330183725  0.20054245377228602  0.5110460242151194  1.0000
  O   O5        1.0  0.10594917289814994  0.7421964613278504  0.35926391650345124  1.0000
  O   O6        1.0  0.1348836454422084  0.7818809611717513  0.23566362150674544  1.0000
  O   O7        1.0  0.5440642801345987  0.4808271642673815  0.29062916890831053  1.0000
  O   O8        1.0  0.49736166983468894  0.30262422429599667  0.25027149640057905  1.0000
  O   O9        1.0  0.8981691224387731  0.8015458183223599  0.6754204915707759  1.0000
  O   O10       1.0  0.7868215070169029  0.7416056787861862  0.7432645891824806  1.0000
