data_image0
_chemical_formula_structural       CoH22C24S2N4O6
_chemical_formula_sum              "Co1 H22 C24 S2 N4 O6"
_cell_length_a       8.798577816444519
_cell_length_b       8.808281934878984
_cell_length_c       9.253867588858254
_cell_angle_alpha    86.86832613064965
_cell_angle_beta     72.56611433004694
_cell_angle_gamma    62.0321530507194

_space_group_name_H-M_alt    "P 1"
_space_group_IT_number       1

loop_
  _space_group_symop_operation_xyz
  'x, y, z'

loop_
  _atom_site_type_symbol
  _atom_site_label
  _atom_site_symmetry_multiplicity
  _atom_site_fract_x
  _atom_site_fract_y
  _atom_site_fract_z
  _atom_site_occupancy
  Co  Co1       1.0  0.500001538600344  2.8703155398446507e-08  0.5000002664949008  1.0000
  H   H1        1.0  0.3039285775552258  0.15201394414495442  0.7632223522288941  1.0000
  H   H2        1.0  0.6960720645560414  0.8479846864842597  0.23677695597519505  1.0000
  H   H3        1.0  0.40651359805200843  0.26650942277208856  0.7129878581978419  1.0000
  H   H4        1.0  0.5934894217052289  0.7334892680495243  0.2870139957883495  1.0000
  H   H5        1.0  0.09634393022819411  0.1421696441784732  0.6524064647364087  1.0000
  H   H6        1.0  0.9036572524683992  0.8578303399727714  0.34759692314494123  1.0000
  H   H7        1.0  0.4131383065368722  0.044767185578990586  0.2005073323644951  1.0000
  H   H8        1.0  0.5868618122396898  0.9552301919762197  0.799496530435505  1.0000
  H   H9        1.0  0.1432038425652991  0.15758867602978197  0.11005597383037725  1.0000
  H   H10       1.0  0.8567986430755851  0.8424086989378166  0.8899450383309931  1.0000
  H   H11       1.0  0.8340755018337379  0.27937955647800544  0.30548105662444397  1.0000
  H   H12       1.0  0.16592461478649764  0.7206178085211973  0.6945217268914095  1.0000
  H   H13       1.0  0.7716472298478365  0.23505058222109906  0.723853484151299  1.0000
  H   H14       1.0  0.22835157520278682  0.7649493417377468  0.2761473579479485  1.0000
  H   H15       1.0  0.6826765096228229  0.22800749995783315  0.5762748533018469  1.0000
  H   H16       1.0  0.3173241303321109  0.7719911181153802  0.4237233756181028  1.0000
  H   H17       1.0  0.09772689329912523  0.8724993300206374  0.0539208427529942  1.0000
  H   H18       1.0  0.9022741569473708  0.12750318668443578  0.9460770198241382  1.0000
  H   H19       1.0  0.06330400159485824  0.6126893165516021  0.15480558257652183  1.0000
  H   H20       1.0  0.9366958630631429  0.3873131888912765  0.8451926260357826  1.0000
  H   H21       1.0  0.2739409304444038  0.3266994430542809  0.0008839475081145674  1.0000
  H   H22       1.0  0.726058284897775  0.6733043795364251  0.9991165282483299  1.0000
  C   C1        1.0  0.09990862984563623  0.15205942099592556  0.53363875528445  1.0000
  C   C2        1.0  0.9000920165782843  0.8479392347452899  0.46636271148793207  1.0000
  C   C3        1.0  0.27722793905726206  0.09702944501627538  0.2815030989072725  1.0000
  C   C4        1.0  0.7227715217781708  0.9029691994627452  0.7184987139002743  1.0000
  C   C5        1.0  0.12590629414614093  0.16278029684015385  0.23167204600265032  1.0000
  C   C6        1.0  0.8740938224740946  0.8372170681590487  0.7683307375132035  1.0000
  C   C7        1.0  0.955655154235778  0.22699310913957046  0.33982983068898437  1.0000
  C   C8        1.0  0.04434614581661847  0.7730042545658332  0.6601715275075579  1.0000
  C   C9        1.0  0.9405240683969753  0.22023243530149733  0.4945494144726439  1.0000
  C   C10       1.0  0.0594777614591068  0.7797662191459193  0.5054506269804194  1.0000
  C   C11       1.0  0.7595352935767323  0.2784422559110452  0.6125938204912701  1.0000
  C   C12       1.0  0.2404646970623859  0.7215576793099954  0.3874066755728122  1.0000
  C   C13       1.0  0.44856680849357394  0.5515497754018595  0.7884090139883143  1.0000
  C   C14       1.0  0.5514343634213718  0.44845014596937455  0.21158897747231015  1.0000
  C   C15       1.0  0.3279213385429217  0.7217964426593821  0.8627764434434088  1.0000
  C   C16       1.0  0.6720786477835362  0.27820346744964997  0.13722189405238075  1.0000
  C   C17       1.0  0.1911099597253242  0.7425475911086039  0.9968997121864195  1.0000
  C   C18       1.0  0.8088905607174793  0.2574536348544569  0.0030994671341914234  1.0000
  C   C19       1.0  0.1707044629579855  0.6003074479121154  0.05197781236460494  1.0000
  C   C20       1.0  0.8292954038563423  0.3996950700867642  0.9480214755318462  1.0000
  C   C21       1.0  0.2888129898501219  0.44092059118816695  0.9671302098922471  1.0000
  C   C22       1.0  0.7111856935320445  0.5590819281045184  0.03287050332351537  1.0000
  C   C23       1.0  0.33405394308732655  0.8768447648591998  0.7934561366168468  1.0000
  C   C24       1.0  0.6659478781434417  0.1231538393642069  0.20653958769964487  1.0000
  S   S1        1.0  0.6353390457795316  0.5140529214061614  0.6288976408467591  1.0000
  S   S2        1.0  0.36466159417540217  0.485945696667052  0.3711005880731905  1.0000
  N   N1        1.0  0.26511074376285393  0.09184843992412788  0.4300649926333764  1.0000
  N   N2        1.0  0.7348899005047332  0.9081502032610868  0.5699353948548664  1.0000
  N   N3        1.0  0.4243013308964479  0.4157321344366593  0.8391297327058783  1.0000
  N   N4        1.0  0.5756980039578677  0.5842690802641994  0.16086979264989767  1.0000
  O   O1        1.0  0.41645751419182625  0.8526230100315144  0.6500820464330916  1.0000
  O   O2        1.0  0.5835468020407079  0.1473730339384431  0.3499141939806807  1.0000
  O   O3        1.0  0.25530860774253467  0.0203452994051929  0.8749509582321839  1.0000
  O   O4        1.0  0.7446890009379529  0.9796545505114408  0.12504483348150344  1.0000
  O   O5        1.0  0.3514639146245956  0.20756566756924844  0.6749058632325602  1.0000
  O   O6        1.0  0.6485402842521352  0.7924329968465571  0.3250924068660269  1.0000
