data_image0
_chemical_formula_structural       Al2H18C48N6O24
_chemical_formula_sum              "Al2 H18 C48 N6 O24"
_cell_length_a       4.0239203494859614
_cell_length_b       28.976073285895502
_cell_length_c       28.976246654557762
_cell_angle_alpha    119.993345830169
_cell_angle_beta     90.00236738454959
_cell_angle_gamma    89.99710903631195

_space_group_name_H-M_alt    "P 1"
_space_group_IT_number       1

loop_
  _space_group_symop_operation_xyz
  'x, y, z'

loop_
  _atom_site_type_symbol
  _atom_site_label
  _atom_site_symmetry_multiplicity
  _atom_site_fract_x
  _atom_site_fract_y
  _atom_site_fract_z
  _atom_site_occupancy
  Al  Al1       1.0  0.9573180768204567  0.5000083057969749  0.49999209608616013  1.0000
  Al  Al2       1.0  0.9567907040076022  0.16665785956297446  0.8333544279579216  1.0000
  H   H1        1.0  0.14786319366921669  0.18173272189685727  0.6992189875322483  1.0000
  H   H2        1.0  0.15526500907235888  0.23353670653076355  0.6514336613480296  1.0000
  H   H3        1.0  0.7473372070121228  0.303001715193858  0.8243042404004444  1.0000
  H   H4        1.0  0.7477374372901836  0.3636667269583286  0.509064676835088  1.0000
  H   H5        1.0  0.1481668366922833  0.48494804470124825  0.6341307965182638  1.0000
  H   H6        1.0  0.15532296402407297  0.4331280004530102  0.6818997272367613  1.0000
  H   H7        1.0  0.1478629906859865  0.017452504292769826  0.8182752235915348  1.0000
  H   H8        1.0  0.15516348666027824  0.9178722517669443  0.7664583192503046  1.0000
  H   H9        1.0  0.7473917207044066  0.02128381284192939  0.6970067732765062  1.0000
  H   H10       1.0  0.7477450427108536  0.6454009140010657  0.6363182534250671  1.0000
  H   H11       1.0  0.1480999402116581  0.6492014044502453  0.5150365440651967  1.0000
  H   H12       1.0  0.1552343470243542  0.7487815531019139  0.5668466015173125  1.0000
  H   H13       1.0  0.1478384409135458  0.3007855334301368  0.9825203510923688  1.0000
  H   H14       1.0  0.155143618840313  0.34857567735780043  0.08210062909180493  1.0000
  H   H15       1.0  0.7474324349019882  0.17572109137687159  0.9787634809497947  1.0000
  H   H16       1.0  0.7477565264813961  0.49092664582290985  0.35458473190746537  1.0000
  H   H17       1.0  0.1481741971477248  0.36586265553348346  0.35081438994030395  1.0000
  H   H18       1.0  0.15526579602661883  0.3181018018719399  0.2512347444550116  1.0000
  C   C1        1.0  0.4553055170120359  0.4593314793109898  0.4183449658930912  1.0000
  C   C2        1.0  0.45533340152532287  0.45903053803391464  0.5406683950672573  1.0000
  C   C3        1.0  0.4552790412564676  0.5816572748804418  0.5409655713624772  1.0000
  C   C4        1.0  0.4547743917800773  0.2076586407271891  0.7927012088498275  1.0000
  C   C5        1.0  0.4548262631082878  0.08501170379204855  0.7923531470532695  1.0000
  C   C6        1.0  0.4548321031070302  0.20730729449279314  0.914997745648883  1.0000
  C   C7        1.0  0.4473838088103079  0.2388901662960309  0.7647123862350257  1.0000
  C   C8        1.0  0.2778514467902368  0.21974222122489107  0.7161049282545663  1.0000
  C   C9        1.0  0.28001688676071984  0.2485621634310107  0.6896904976219957  1.0000
  C   C10       1.0  0.4414929319281384  0.2986421650929502  0.7118770931397409  1.0000
  C   C11       1.0  0.6033638191170994  0.3174316995021231  0.7614627207449873  1.0000
  C   C12       1.0  0.6121330173962745  0.2877478428871359  0.7870053171770766  1.0000
  C   C13       1.0  0.43932423067766996  0.32568907303241446  0.6828718684910413  1.0000
  C   C14       1.0  0.4392894016881996  0.3409632695152069  0.6504607639386037  1.0000
  C   C15       1.0  0.4415293363855782  0.36801272662872725  0.6214585059231299  1.0000
  C   C16       1.0  0.603469531624846  0.3492225208582342  0.5718779829461342  1.0000
  C   C17       1.0  0.6124268272685711  0.37891997124935994  0.5463514475342067  1.0000
  C   C18       1.0  0.4477584800461473  0.4277865776115561  0.5686455155538965  1.0000
  C   C19       1.0  0.2781066918664408  0.4469313483069401  0.6172427615438353  1.0000
  C   C20       1.0  0.2801187703821952  0.41810118805459245  0.6436473906465069  1.0000
  C   C21       1.0  0.4474241670278261  0.025795649621564113  0.7611168782115671  1.0000
  C   C22       1.0  0.2778575725256546  0.9963373289965605  0.7802621259961386  1.0000
  C   C23       1.0  0.27997319179238633  0.9411055653165477  0.7514344532199574  1.0000
  C   C24       1.0  0.44139804367826935  0.9132223330801781  0.7013544670108375  1.0000
  C   C25       1.0  0.6032990150230404  0.9440223003670526  0.6825708543292424  1.0000
  C   C26       1.0  0.6121504409076266  0.9992374185622879  0.7122550703033498  1.0000
  C   C27       1.0  0.4391377399187207  0.8571774387005393  0.6743019883454411  1.0000
  C   C28       1.0  0.43909190980263446  0.8094905777661624  0.6590183900297364  1.0000
  C   C29       1.0  0.44137692445056587  0.7534462685964556  0.6319653205779547  1.0000
  C   C30       1.0  0.6033690434496037  0.7226550437367226  0.6507542861978309  1.0000
  C   C31       1.0  0.6123683680190553  0.6674395990572963  0.6210662338819548  1.0000
  C   C32       1.0  0.4476684149190362  0.6408690303631843  0.5721978754935435  1.0000
  C   C33       1.0  0.2780222577805774  0.6703237196021945  0.5530538836032264  1.0000
  C   C34       1.0  0.2800220279753773  0.7255565605771112  0.5818818543401393  1.0000
  C   C35       1.0  0.4473902439429552  0.23529970905367759  0.9742142884042836  1.0000
  C   C36       1.0  0.2778077588847339  0.2839022369660142  0.00365417755514837  1.0000
  C   C37       1.0  0.27990853296061863  0.3103197024547271  0.058884417835798744  1.0000
  C   C38       1.0  0.4413189112618525  0.28813616999445907  0.08678675171247363  1.0000
  C   C39       1.0  0.603269890926967  0.23855109052117032  0.05601077466574373  1.0000
  C   C40       1.0  0.6121408477860796  0.21301197015651502  0.0007945490039275819  1.0000
  C   C41       1.0  0.4391001678512865  0.31713785838226727  0.14283178935175297  1.0000
  C   C42       1.0  0.43912118177017584  0.3495503427855553  0.1905135595075009  1.0000
  C   C43       1.0  0.4414278769926767  0.37854419871296596  0.24655676186784353  1.0000
  C   C44       1.0  0.6034296341189106  0.42812166139781743  0.27733926752050314  1.0000
  C   C45       1.0  0.6124268270474289  0.4536455154305586  0.33255624425251545  1.0000
  C   C46       1.0  0.4477445921101975  0.43134986160241334  0.3591279970795611  1.0000
  C   C47       1.0  0.2780836567020515  0.38275447219955083  0.3296857908301973  1.0000
  C   C48       1.0  0.28005850744150257  0.3563529414832303  0.2744575548364169  1.0000
  N   N1        1.0  0.7816296946572123  0.36866664570253965  0.7866697666227652  1.0000
  N   N2        1.0  0.7816123016738173  0.2979768883828485  0.5466597907841122  1.0000
  N   N3        1.0  0.781542780408799  0.9179974342025975  0.6313281738571136  1.0000
  N   N4        1.0  0.7815761713701548  0.7486826525297092  0.7020048285959676  1.0000
  N   N5        1.0  0.7815272957626432  0.21335143974530982  0.08205395724306193  1.0000
  N   N6        1.0  0.7815560216055599  0.453333391118882  0.2513001319389829  1.0000
  O   O1        1.0  0.6933832532866475  0.5584578704700434  0.5504166367946227  1.0000
  O   O2        1.0  0.6933718528763535  0.4919856409832733  0.44154052355862217  1.0000
  O   O3        1.0  0.6934190385490597  0.4495792253631805  0.5080195204771202  1.0000
  O   O4        1.0  0.22331298778113515  0.5581634437385078  0.5070521188856817  1.0000
  O   O5        1.0  0.2233460904079863  0.49294384935483754  0.5510826671552637  1.0000
  O   O6        1.0  0.22331568130042007  0.4489184767679647  0.4418440448097841  1.0000
  O   O7        1.0  0.6928537195575045  0.1746470147503771  0.8917925378766896  1.0000
  O   O8        1.0  0.6927717403047922  0.2171051386190187  0.8253660458764076  1.0000
  O   O9        1.0  0.6928298823916776  0.1082293882345696  0.7829080623241327  1.0000
  O   O10       1.0  0.22278193881167144  0.21772854464780525  0.8915116937151596  1.0000
  O   O11       1.0  0.2227945653756223  0.10849019580054889  0.8262604236837208  1.0000
  O   O12       1.0  0.2227241844425905  0.17375621540320915  0.7822786913642192  1.0000
  O   O13       1.0  0.7663131111651468  0.3959687876099098  0.7647235267586228  1.0000
  O   O14       1.0  0.9407991764635781  0.38103647318833817  0.8279375850155831  1.0000
  O   O15       1.0  0.7661007402139006  0.2706535582723647  0.5685803263321818  1.0000
  O   O16       1.0  0.9408934576073732  0.2856156824972517  0.5054043543309705  1.0000
  O   O17       1.0  0.7661944736737637  0.8687548766078024  0.6040222801322273  1.0000
  O   O18       1.0  0.9406964690776362  0.946893936291801  0.6189560605163323  1.0000
  O   O19       1.0  0.7660789380121854  0.7979225057748212  0.7293134645287226  1.0000
  O   O20       1.0  0.9408457822497739  0.7197871994610593  0.7143686002883243  1.0000
  O   O21       1.0  0.7660083694251584  0.23528015808409464  0.13129299940729314  1.0000
  O   O22       1.0  0.940897476637879  0.1721016558853208  0.053172866733170586  1.0000
  O   O23       1.0  0.766015684187515  0.4314085300375011  0.20206003131274736  1.0000
  O   O24       1.0  0.9408526846384291  0.4945889719760147  0.28018400600947774  1.0000
