data_image0
_chemical_formula_structural       Zn4H27C72N20Cl17O12
_chemical_formula_sum              "Zn4 H27 C72 N20 Cl17 O12"
_cell_length_a       19.611169947797812
_cell_length_b       19.7666499243672
_cell_length_c       21.033654667550437
_cell_angle_alpha    108.38285932195876
_cell_angle_beta     107.12321017042649
_cell_angle_gamma    110.50331923916663

_space_group_name_H-M_alt    "P 1"
_space_group_IT_number       1

loop_
  _space_group_symop_operation_xyz
  'x, y, z'

loop_
  _atom_site_type_symbol
  _atom_site_label
  _atom_site_symmetry_multiplicity
  _atom_site_fract_x
  _atom_site_fract_y
  _atom_site_fract_z
  _atom_site_occupancy
  Zn  Zn1       1.0  0.6112398774063693  0.6018571325855006  0.49719911815150636  1.0000
  Zn  Zn2       1.0  0.40383117173843186  0.4072960017639674  0.5100250167056969  1.0000
  Zn  Zn3       1.0  0.5004245181554978  0.6056637415842232  0.5900683426943372  1.0000
  Zn  Zn4       1.0  0.5084901181043479  0.3954407387064053  0.41133397236990277  1.0000
  H   H1        1.0  0.23544958011533626  0.37498741506225036  0.38712870108400915  1.0000
  H   H2        1.0  0.5063370600593798  0.0104297708819772  0.5652146641007929  1.0000
  H   H3        1.0  0.4946357352800704  0.4619858483952584  0.08324603121843664  1.0000
  H   H4        1.0  0.305910934463711  0.5081112857629436  0.18470551783560302  1.0000
  H   H5        1.0  0.9253641027960388  0.8958582247083202  0.9163369416179277  1.0000
  H   H6        1.0  0.14949266009237053  0.18026963313168662  0.22971331649552698  1.0000
  H   H7        1.0  0.023984152049969506  0.0648004257004402  0.11275182105533328  1.0000
  H   H8        1.0  0.5444156444030173  0.8541080287711439  0.670517843167481  1.0000
  H   H9        1.0  0.17325685218715145  0.18163152486769016  0.35322099734418083  1.0000
  H   H10       1.0  0.9415091234432968  0.5368472708907535  0.4856330392283256  1.0000
  H   H11       1.0  0.7572254680011099  0.19945216940749333  0.8084666802385028  1.0000
  H   H12       1.0  0.6894851385803733  0.7978045021372678  0.530141854823391  1.0000
  H   H13       1.0  0.5529340540145711  0.05542767699724041  0.4514641182497455  1.0000
  H   H14       1.0  0.4561929208881495  0.6908296371939144  0.7080938219951703  1.0000
  H   H15       1.0  0.5241884334777326  0.6537240236183807  0.9812559243057207  1.0000
  H   H16       1.0  0.5546462796041071  0.4537214175609847  0.19244762604122898  1.0000
  H   H17       1.0  0.279916496735467  0.49865578951401096  0.00517149767945574  1.0000
  H   H18       1.0  0.06814669148636922  0.8533951286484653  0.07144361896793329  1.0000
  H   H19       1.0  0.30509587194946164  0.35424041114885807  0.6510056179077494  1.0000
  H   H20       1.0  0.6722972849580274  0.33346221208375226  0.5277681162776062  1.0000
  H   H21       1.0  0.3749239024835094  0.638040437777761  0.47916285539204034  1.0000
  H   H22       1.0  0.09533375356485868  0.6421594190040169  0.42570385155888596  1.0000
  H   H23       1.0  0.500246165493735  0.3761640550276439  0.6383715407352921  1.0000
  H   H24       1.0  0.9572756893190757  0.5832510027756044  0.28809139364111047  1.0000
  H   H25       1.0  0.9768675881282293  0.44633107060590765  0.2222347242197884  1.0000
  H   H26       1.0  0.8726992713027216  0.35845172605971953  0.27023388833225676  1.0000
  H   H27       1.0  0.7255100991138691  0.09335297011347883  0.5647600540206098  1.0000
  C   C1        1.0  0.7237798394205585  0.6238822565645136  0.6447617751943183  1.0000
  C   C2        1.0  0.6500677926778877  0.7836219829105745  0.556380134684275  1.0000
  C   C3        1.0  0.4087315017730263  0.4286408919127354  0.29770906964333216  1.0000
  C   C4        1.0  0.5296873447991289  0.38077588441958465  0.6023707084601142  1.0000
  C   C5        1.0  0.35313109330845555  0.5735490896070559  0.46250692213628486  1.0000
  C   C6        1.0  0.4268203564150285  0.492604628759473  0.27894806897500496  1.0000
  C   C7        1.0  0.27311537153860144  0.506949838866163  0.41580717925469896  1.0000
  C   C8        1.0  0.6253678164337233  0.83395803890145  0.5966342848044517  1.0000
  C   C9        1.0  0.28080883475902146  0.17885872040121603  0.3072418534313144  1.0000
  C   C10       1.0  0.997604143696428  0.4538078411775501  0.3799103154944774  1.0000
  C   C11       1.0  0.9889621305796157  0.5314373919228003  0.4173793915241929  1.0000
  C   C12       1.0  0.5878908373527667  0.3568504035715137  0.5946924966383589  1.0000
  C   C13       1.0  0.7825370610530271  0.4935395905435697  0.3577702695224615  1.0000
  C   C14       1.0  0.19924284697387415  0.5078148427334384  0.3859001910435254  1.0000
  C   C15       1.0  0.9224909807599533  0.4215504200348264  0.3042081540042218  1.0000
  C   C16       1.0  0.4192975343221406  0.5818190059654357  0.6952100672030708  1.0000
  C   C17       1.0  0.9104829071709234  0.4969962560954996  0.3404445262836049  1.0000
  C   C18       1.0  0.9797192350116576  0.47056134141031686  0.2779366887076619  1.0000
  C   C19       1.0  0.05740228935663797  0.5036671449132585  0.35393987151125117  1.0000
  C   C20       1.0  0.9694866361391378  0.5464257641139412  0.31447689630116565  1.0000
  C   C21       1.0  0.04528141960570046  0.5792636054389461  0.3904169197097217  1.0000
  C   C22       1.0  0.8381107274792827  0.4940273848291242  0.34238742104214026  1.0000
  C   C23       1.0  0.38582035974084766  0.517536590435988  0.7116962437657007  1.0000
  C   C24       1.0  0.1335745959582652  0.5067331432905319  0.3658723741266312  1.0000
  C   C25       1.0  0.6840480323397318  0.13503848197458274  0.7023903268620727  1.0000
  C   C26       1.0  0.7251879458811247  0.18710822543211947  0.6677270119143514  1.0000
  C   C27       1.0  0.616675775059676  0.31059371172350586  0.6211077950524879  1.0000
  C   C28       1.0  0.651851506388944  0.4285975814251444  0.3681714303381155  1.0000
  C   C29       1.0  0.639684350539909  0.9130859503948444  0.6106178882641797  1.0000
  C   C30       1.0  0.6041322644652142  0.1410803153519922  0.6680322473870035  1.0000
  C   C31       1.0  0.6463685703916725  0.1953808505034473  0.6345079256469431  1.0000
  C   C32       1.0  0.5686793034115284  0.06145493045575991  0.5941127201918732  1.0000
  C   C33       1.0  0.6480010465473997  0.05404639233316998  0.627559237793747  1.0000
  C   C34       1.0  0.7215591683488328  0.4945867114659423  0.37910199923206983  1.0000
  C   C35       1.0  0.6112673824277836  0.11351110434434022  0.56043485152  1.0000
  C   C36       1.0  0.6907116125871016  0.10747767353625902  0.593956663791097  1.0000
  C   C37       1.0  0.6391622530685553  0.26368523717219017  0.6336830243391842  1.0000
  C   C38       1.0  0.6461915860804128  0.9799566750464527  0.6211989267408741  1.0000
  C   C39       1.0  0.4091523981520738  0.4870640324351072  0.20390147029102212  1.0000
  C   C40       1.0  0.3776300233808031  0.45016758476847946  0.6531471707332768  1.0000
  C   C41       1.0  0.3468656442350878  0.49709118050220275  0.16259772174446846  1.0000
  C   C42       1.0  0.3357027962295902  0.4933961887082248  0.09221789360637438  1.0000
  C   C43       1.0  0.39099451422207926  0.48139991729733833  0.0645456747527929  1.0000
  C   C44       1.0  0.4535201670896569  0.4705904547544364  0.10644295865033362  1.0000
  C   C45       1.0  0.4869536387747716  0.5602886516029173  0.3484184018076987  1.0000
  C   C46       1.0  0.46242421073422696  0.47257175339596114  0.17468798382819276  1.0000
  C   C47       1.0  0.41924491659363394  0.5631113890164984  0.9117580585773621  1.0000
  C   C48       1.0  0.4295928540054703  0.5700762238669197  0.8504142878056553  1.0000
  C   C49       1.0  0.3452719262013488  0.5009612034523913  0.8984900210652638  1.0000
  C   C50       1.0  0.3694185141162053  0.5170618815255781  0.7750843424403654  1.0000
  C   C51       1.0  0.29414309411371425  0.45856855931428003  0.7641815808754939  1.0000
  C   C52       1.0  0.7178434869152285  0.5627755751843324  0.4229158948738883  1.0000
  C   C53       1.0  0.28200542490610303  0.45085969686445543  0.8246025486196371  1.0000
  C   C54       1.0  0.799219829939503  0.6919777542200621  0.7907951119580544  1.0000
  C   C55       1.0  0.8294203161573961  0.6603523978523214  0.8368693562082185  1.0000
  C   C56       1.0  0.28182055172077725  0.43883890892347216  0.4152398416037783  1.0000
  C   C57       1.0  0.8934749687523862  0.7124143408988745  0.9106017105878903  1.0000
  C   C58       1.0  0.926895503883401  0.7977396237135822  0.9391866670248205  1.0000
  C   C59       1.0  0.8980490837825317  0.8298561629038022  0.8934472358165235  1.0000
  C   C60       1.0  0.8356873538497924  0.7778311027480244  0.8208265987917044  1.0000
  C   C61       1.0  0.12952462305957377  0.9631894090758878  0.14736356573099121  1.0000
  C   C62       1.0  0.19986074851224342  0.028904981168999196  0.21336281436418858  1.0000
  C   C63       1.0  0.06641904856503808  0.9780964875452938  0.11051685868887522  1.0000
  C   C64       1.0  0.601732468065599  0.37627257720905766  0.5387702019663648  1.0000
  C   C65       1.0  0.20763998775549908  0.10715878830595219  0.2427480724447476  1.0000
  C   C66       1.0  0.14197406130527676  0.11887974459941122  0.20734633015489115  1.0000
  C   C67       1.0  0.5740269535290426  0.7823720041528122  0.6158627803026774  1.0000
  C   C68       1.0  0.07326976950746202  0.05597484482450451  0.14252007176029477  1.0000
  C   C69       1.0  0.6465918183463516  0.6161301285580053  0.7018440595677687  1.0000
  C   C70       1.0  0.7281576062986092  0.6407295250495579  0.716166505888239  1.0000
  C   C71       1.0  0.36186875076720076  0.21710994395731117  0.31825034468950253  1.0000
  C   C72       1.0  0.28322920675010727  0.23631583175952642  0.369476525755175  1.0000
  N   N1        1.0  0.6464548135494823  0.5927956156233094  0.5929319135104122  1.0000
  N   N2        1.0  0.33415809830342624  0.49046323180989776  0.9588241124604763  1.0000
  N   N3        1.0  0.9907347423165194  0.8496802081747036  0.012855649847196574  1.0000
  N   N4        1.0  0.5111144447019244  0.41082738769977567  0.5548245844363392  1.0000
  N   N5        1.0  0.9990567362149749  0.9215707134255595  0.04204024532143798  1.0000
  N   N6        1.0  0.43085202371293724  0.555676129354211  0.6342586676879448  1.0000
  N   N7        1.0  0.6117710592874063  0.45525241108666853  0.40240750562386296  1.0000
  N   N8        1.0  0.40387344002205344  0.4722384494821484  0.6075064345168568  1.0000
  N   N9        1.0  0.6535802400685073  0.5393834175975344  0.4370847961266405  1.0000
  N   N10       1.0  0.5561401665057276  0.4087370623661926  0.51557392977719  1.0000
  N   N11       1.0  0.5980916548893518  0.5886342911589753  0.62870743689826  1.0000
  N   N12       1.0  0.3602262993950519  0.46401603555155907  0.4590225431226428  1.0000
  N   N13       1.0  0.5030453787615699  0.5385517548285604  0.40331248621428967  1.0000
  N   N14       1.0  0.5685197709246027  0.7088601462333203  0.589480574375635  1.0000
  N   N15       1.0  0.40737350504723935  0.28986436231939905  0.3801222169081625  1.0000
  N   N16       1.0  0.3579636136734123  0.3009029297749207  0.41342862456970403  1.0000
  N   N17       1.0  0.6159705830812714  0.7095656316306249  0.5519394795897269  1.0000
  N   N18       1.0  0.4548836563788541  0.4555353083410338  0.37161084679521383  1.0000
  N   N19       1.0  0.404131322941886  0.5464951611970575  0.48805188331923677  1.0000
  N   N20       1.0  0.3916818327702033  0.48334442151443124  0.9996389598606754  1.0000
  Cl  Cl1       1.0  0.802818885187847  0.6408884059805119  0.6225507541626597  1.0000
  Cl  Cl2       1.0  0.2741140392575972  0.009331655824084403  0.2576314604703782  1.0000
  Cl  Cl3       1.0  0.6185405945250508  0.32730814860051527  0.3196350394784842  1.0000
  Cl  Cl4       1.0  0.8010309171783733  0.8202978206880617  0.7668994389940238  1.0000
  Cl  Cl5       1.0  0.9291151254831291  0.6734145695526905  0.9667906418843585  1.0000
  Cl  Cl6       1.0  0.785468764236754  0.5561901814467021  0.801703091463551  1.0000
  Cl  Cl7       1.0  0.7826984483468495  0.6633693760223877  0.4559828188602991  1.0000
  Cl  Cl8       1.0  0.6107483074663803  0.6203012853129479  0.766486834363185  1.0000
  Cl  Cl9       1.0  0.5391478803102175  0.6583273068993023  0.36456115135089806  1.0000
  Cl  Cl10      1.0  0.4014870468573549  0.18549847986580661  0.26037791014682904  1.0000
  Cl  Cl11      1.0  0.3382681899948139  0.3287601890816206  0.23709984179830454  1.0000
  Cl  Cl12      1.0  0.015645549462178117  0.39463617842116616  0.42172157442039543  1.0000
  Cl  Cl13      1.0  0.8249856679126213  0.26769677917371143  0.7179304495194428  1.0000
  Cl  Cl14      1.0  0.5505651768918938  0.1636001681097738  0.7163104723730596  1.0000
  Cl  Cl15      1.0  0.5245036749304364  0.6456522531934613  0.8732297097117294  1.0000
  Cl  Cl16      1.0  0.21461743787539697  0.3938714521050103  0.6738057194268235  1.0000
  Cl  Cl17      1.0  0.19114813117207063  0.3774770863438661  0.8098378436079654  1.0000
  O   O1        1.0  0.5320575704849517  0.7973450658473525  0.6545650467755946  1.0000
  O   O2        1.0  0.1227359508370257  0.889203570609695  0.11988497848354032  1.0000
  O   O3        1.0  0.35174487061526355  0.3716831669260757  0.6400436957330908  1.0000
  O   O4        1.0  0.6501743653806572  0.3636872475886222  0.5076603607814717  1.0000
  O   O5        1.0  0.22310085125331375  0.23321696216310533  0.38985826334118906  1.0000
  O   O6        1.0  0.9944862296253806  0.5665449619449421  0.4876898534006386  1.0000
  O   O7        1.0  0.721225859348273  0.14174002551369821  0.7719857113447262  1.0000
  O   O8        1.0  0.5761932141500238  0.1104950040459443  0.4915110224368674  1.0000
  O   O9        1.0  0.43725551554448583  0.6600157640101473  0.7334302925509347  1.0000
  O   O10       1.0  0.47830562075647276  0.6148436509161853  0.9834926658312851  1.0000
  O   O11       1.0  0.5222938738517868  0.46273677718169653  0.21815942940673239  1.0000
  O   O12       1.0  0.2749136273498537  0.5026100616327727  0.05289071156229142  1.0000
