data_image0
_chemical_formula_structural       Cd4H30C40N6O24
_chemical_formula_sum              "Cd4 H30 C40 N6 O24"
_cell_length_a       8.158519750778908
_cell_length_b       10.767526488334603
_cell_length_c       13.0045
_cell_angle_alpha    99.26815377740944
_cell_angle_beta     92.0057043738144
_cell_angle_gamma    97.39085237196575

_space_group_name_H-M_alt    "P 1"
_space_group_IT_number       1

loop_
  _space_group_symop_operation_xyz
  'x, y, z'

loop_
  _atom_site_type_symbol
  _atom_site_label
  _atom_site_symmetry_multiplicity
  _atom_site_fract_x
  _atom_site_fract_y
  _atom_site_fract_z
  _atom_site_occupancy
  Cd  Cd1       1.0  0.46809901214317057  0.4343966044851513  0.1993384788602057  1.0000
  Cd  Cd2       1.0  0.5319015219914149  0.5656035013276295  0.8006613162886891  1.0000
  Cd  Cd3       1.0  0.8608840626518485  0.2301513442105119  0.1103593141900987  1.0000
  Cd  Cd4       1.0  0.13911541355061272  0.7698497114476835  0.889640584392893  1.0000
  H   H1        1.0  0.1489803399530061  0.5086346226804963  0.156848569647444  1.0000
  H   H2        1.0  0.8510200256497811  0.4913645332868625  0.8431518641024666  1.0000
  H   H3        1.0  0.2710192934975595  0.587067158242597  0.0873004991866964  1.0000
  H   H4        1.0  0.7289810721052206  0.4129319977247619  0.9126999345632142  1.0000
  H   H5        1.0  0.1475087386675256  0.1771813147739891  0.22699616550707447  1.0000
  H   H6        1.0  0.8524905690031234  0.8228187910387915  0.7730043716769188  1.0000
  H   H7        1.0  0.0604475107127769  0.0433404965868576  0.15631972326144708  1.0000
  H   H8        1.0  0.9395517969578722  0.9566596092259232  0.8436808139225533  1.0000
  H   H9        1.0  0.12154261273927598  0.6311048413664082  0.3181419098834581  1.0000
  H   H10       1.0  0.8784591478592604  0.3688952644463726  0.6818586811595111  1.0000
  H   H11       1.0  0.6832143552538099  0.4618300398534814  0.4468372826115399  1.0000
  H   H12       1.0  0.31678617888078264  0.5381700659592994  0.5531632815019449  1.0000
  H   H13       1.0  0.7117158176166569  0.8924538583375607  0.3922463274031216  1.0000
  H   H14       1.0  0.2882847165179355  0.10754624747521999  0.6077534677457734  1.0000
  H   H15       1.0  0.9303845123313012  0.9433494253807452  0.2685937511334799  1.0000
  H   H16       1.0  0.0696160218032915  0.0566506804320355  0.7314068129800048  1.0000
  H   H17       1.0  0.5256057684845672  0.6846324300634166  0.35077307381897777  1.0000
  H   H18       1.0  0.47439476565002536  0.3153676757493642  0.649227490294507  1.0000
  H   H19       1.0  0.9672489968622385  0.8037098009155272  0.6155019641576657  1.0000
  H   H20       1.0  0.0327515372723539  0.1962903048972535  0.38449783099123636  1.0000
  H   H21       1.0  0.7685597760781135  0.5759292708688335  0.0826630854193624  1.0000
  H   H22       1.0  0.23143936306072985  0.4240698850985254  0.9173365524364668  1.0000
  H   H23       1.0  0.32414249682650365  0.792814124123403  0.1671465830852839  1.0000
  H   H24       1.0  0.6758568108441522  0.2071859816893777  0.8328539540987163  1.0000
  H   H25       1.0  0.5810361359727878  0.1722354696814392  0.2631284652248596  1.0000
  H   H26       1.0  0.4189642296299922  0.8277636862859196  0.736871968525044  1.0000
  H   H27       1.0  0.7263021199896544  0.9495082230723284  4.876266081064252e-05  1.0000
  H   H28       1.0  0.2736984141449384  0.0504918827404524  0.999952570417264  1.0000
  H   H29       1.0  0.3628715223766719  0.9990911037475668  0.2932904115200188  1.0000
  H   H30       1.0  0.6371265588300403  0.0009090020652138  0.7067077918407277  1.0000
  C   C1        1.0  0.053087611587670794  0.7257768840433982  0.46637525151167847  1.0000
  C   C2        1.0  0.9469116960829779  0.2742232217693754  0.533625285672322  1.0000
  C   C3        1.0  0.4999060345733355  0.7398459943777169  0.9911253548882399  1.0000
  C   C4        1.0  0.5000943310294447  0.260153161589642  0.008875078861670696  1.0000
  C   C5        1.0  0.0325947387683385  0.631126687811026  0.3785609732422728  1.0000
  C   C6        1.0  0.9674057953662469  0.3688734180017548  0.6214395908712191  1.0000
  C   C7        1.0  0.788010290993796  0.5365220841587259  0.4521056058756301  1.0000
  C   C8        1.0  0.2119902431407965  0.4634780216540548  0.5478949582378547  1.0000
  C   C9        1.0  0.8967565279855093  0.5360899044934513  0.371342941320826  1.0000
  C   C10       1.0  0.10324417468088849  0.46391115116475123  0.6286577531562401  1.0000
  C   C11       1.0  0.7291447508147471  0.8243375938624878  0.3234748774872855  1.0000
  C   C12       1.0  0.2708543883240964  0.1756615621048709  0.6765247603685508  1.0000
  C   C13       1.0  0.850870018251399  0.852159516006857  0.2549097878739346  1.0000
  C   C14       1.0  0.1491305158831935  0.1478405898059165  0.7450900072749604  1.0000
  C   C15       1.0  0.8689307379215876  0.4324266250878139  0.27846241424543894  1.0000
  C   C16       1.0  0.1310699647448104  0.5675744305703816  0.7215382802316269  1.0000
  C   C17       1.0  0.6250915903253472  0.7095098314113812  0.3009579136845487  1.0000
  C   C18       1.0  0.37490877527744  0.2904893245559848  0.6990425200653617  1.0000
  C   C19       1.0  0.9451589077639824  0.7289997095473382  0.5474149651143421  1.0000
  C   C20       1.0  0.0548417949024156  0.2710013461108574  0.4525849603981271  1.0000
  C   C21       1.0  0.7593460775244695  0.6480291870278236  0.15049517552822778  1.0000
  C   C22       1.0  0.24065428807831776  0.3519699689395424  0.8495052582216828  1.0000
  C   C23       1.0  0.4184302047146602  0.870430742471271  0.1570495466979409  1.0000
  C   C24       1.0  0.5815691029559886  0.1295693633415027  0.8429502215214626  1.0000
  C   C25       1.0  0.5614684389300351  0.08118898696570649  0.2111858941144575  1.0000
  C   C26       1.0  0.43853086874062097  0.9188111188470741  0.7888138741049531  1.0000
  C   C27       1.0  0.8119364846982932  0.6319559028611152  0.5402489458293402  1.0000
  C   C28       1.0  0.18806404943629218  0.3680442029516655  0.45975084931955473  1.0000
  C   C29       1.0  0.6436435201420281  0.9570366978569496  0.06414221461447057  1.0000
  C   C30       1.0  0.3563556189968154  0.0429624581104164  0.9358574232413659  1.0000
  C   C31       1.0  0.4395162652890008  0.9846059611200815  0.22680538584092597  1.0000
  C   C32       1.0  0.5604805894537677  0.015394144692699297  0.7731935595549189  1.0000
  C   C33       1.0  0.8661768983910677  0.7628968429864926  0.1660631843652567  1.0000
  C   C34       1.0  0.1338234672117196  0.2371023129808663  0.8339364804200642  1.0000
  C   C35       1.0  0.9842686936771443  0.7878255359870394  0.08347949779373208  1.0000
  C   C36       1.0  0.015730782525317  0.2121755196711561  0.9165211697538425  1.0000
  C   C37       1.0  0.7000784822810928  0.6233730996622953  0.6287372423355464  1.0000
  C   C38       1.0  0.2999208253895631  0.3766270061504855  0.3712625258838642  1.0000
  C   C39       1.0  0.5220185262960443  0.8560320357768417  0.07372830000273471  1.0000
  C   C40       1.0  0.47798078137460465  0.1439680700359389  0.9262722371812586  1.0000
  N   N1        1.0  0.6408953351531749  0.6226189224002496  0.2160287933255205  1.0000
  N   N2        1.0  0.3591051989814176  0.3773811834125311  0.7839717707879641  1.0000
  N   N3        1.0  0.6618574578896955  0.0675606049054309  0.1308453343114167  1.0000
  N   N4        1.0  0.33814307624489714  0.9324395009073498  0.8691544608374784  1.0000
  N   N5        1.0  0.1965042185812962  0.8248657079150021  0.47457454763132023  1.0000
  N   N6        1.0  0.8034963155532964  0.1751343978977786  0.5254260164821644  1.0000
  O   O1        1.0  0.3664915483216263  0.6618484880171494  0.983629805346382  1.0000
  O   O2        1.0  0.6335088172811538  0.3381506679502095  0.016370628403528494  1.0000
  O   O3        1.0  0.26053522910873284  0.5554002618453708  0.1543519577994772  1.0000
  O   O4        1.0  0.7394640785619161  0.4445998439674099  0.8456478104199333  1.0000
  O   O5        1.0  0.04099487307944119  0.126366484591351  0.1973683158555417  1.0000
  O   O6        1.0  0.9590042660594024  0.873632671376015  0.8026320909648773  1.0000
  O   O7        1.0  0.6155145401438347  0.7284934419394418  0.9282566272075385  1.0000
  O   O8        1.0  0.38448476752681426  0.271506663873339  0.071743141011865  1.0000
  O   O9        1.0  0.9852497657309841  0.419023356391655  0.2163262482210371  1.0000
  O   O10       1.0  0.014750936935413992  0.5809776992665476  0.7836729083268494  1.0000
  O   O11       1.0  0.059446687799926706  0.8985157717964897  0.0829613447393882  1.0000
  O   O12       1.0  0.9405513934067855  0.10148433401629119  0.9170376275859409  1.0000
  O   O13       1.0  0.7313165211383534  0.3588857934294225  0.2646428558714291  1.0000
  O   O14       1.0  0.2686840129962391  0.6411143123833583  0.7353577082420557  1.0000
  O   O15       1.0  0.6976628829460623  0.7190776243088663  0.7000854585805882  1.0000
  O   O16       1.0  0.3023353667924553  0.2809234313493292  0.2999128751437325  1.0000
  O   O17       1.0  0.6133850261281353  0.5161991915910065  0.6297798118992972  1.0000
  O   O18       1.0  0.38661567653826273  0.48380186406718906  0.3702201136131719  1.0000
  O   O19       1.0  0.998916987737431  0.6920792181420694  0.01392531032845312  1.0000
  O   O20       1.0  0.00108231993322509  0.3079208876707114  0.9860744578909573  1.0000
  O   O21       1.0  0.2799966689967164  0.8301933908656665  0.3969267738800184  1.0000
  O   O22       1.0  0.7200038651378691  0.1698067149471143  0.6030737902334735  1.0000
  O   O23       1.0  0.22708221958986743  0.8982184701805948  0.5590650841446703  1.0000
  O   O24       1.0  0.7729183145447251  0.10178163563218588  0.44093547996881444  1.0000
