data_image0
_chemical_formula_structural       Sr2Cu2H12C28N4O16
_chemical_formula_sum              "Sr2 Cu2 H12 C28 N4 O16"
_cell_length_a       8.556951007305818
_cell_length_b       9.832668046596494
_cell_length_c       9.808056879189165
_cell_angle_alpha    59.932090523442035
_cell_angle_beta     88.00427699200915
_cell_angle_gamma    86.02678876371534

_space_group_name_H-M_alt    "P 1"
_space_group_IT_number       1

loop_
  _space_group_symop_operation_xyz
  'x, y, z'

loop_
  _atom_site_type_symbol
  _atom_site_label
  _atom_site_symmetry_multiplicity
  _atom_site_fract_x
  _atom_site_fract_y
  _atom_site_fract_z
  _atom_site_occupancy
  Sr  Sr1       1.0  0.2499965847084198  0.9885397194013592  0.02307726366878173  1.0000
  Sr  Sr2       1.0  0.7500030444660767  0.011460204284780534  0.9769220358491851  1.0000
  Cu  Cu1       1.0  0.49999946159788067  0.5000010753075584  0.9999992117769098  1.0000
  Cu  Cu2       1.0  1.127084275079398e-07  0.49999990046915577  0.9999994230593645  1.0000
  H   H1        1.0  0.6072474975947203  0.34902973661421277  0.5754123205619381  1.0000
  H   H2        1.0  0.8927645051032016  0.07591297473401666  0.5755103429481991  1.0000
  H   H3        1.0  0.3927521391159702  0.650968151271897  0.42458902095070544  1.0000
  H   H4        1.0  0.10723512030320136  0.9240879668521418  0.4244879355724366  1.0000
  H   H5        1.0  0.3241851733795826  0.05355459172521649  0.49075728366381816  1.0000
  H   H6        1.0  0.17599432615396893  0.4559387190767978  0.49076291559453733  1.0000
  H   H7        1.0  0.6758145856925777  0.9464431332364143  0.5092418626288977  1.0000
  H   H8        1.0  0.8240040146758929  0.5440603851916562  0.5092395719253205  1.0000
  H   H9        1.0  0.630555003435674  0.5251374191908481  0.27778383717835453  1.0000
  H   H10       1.0  0.8693905873829948  0.19731875913959118  0.2779137406138332  1.0000
  H   H11       1.0  0.3694433373941877  0.4748616850775987  0.7222186503415102  1.0000
  H   H12       1.0  0.1306101447098911  0.8026827373009695  0.7220851532334649  1.0000
  C   C1        1.0  0.4630616635319241  0.18915855558117292  0.5539494698504158  1.0000
  C   C2        1.0  0.03701906457106218  0.2572031601019304  0.554004787130154  1.0000
  C   C3        1.0  0.5369380287073613  0.8108407776927178  0.44604924255625644  1.0000
  C   C4        1.0  0.9629794503807717  0.7427982445298369  0.4459918550664811  1.0000
  C   C5        1.0  0.4147580388867382  0.2543775090945744  0.2881191151063263  1.0000
  C   C6        1.0  0.08525763665560498  0.4577287095181433  0.2881496234123447  1.0000
  C   C7        1.0  0.5852426376775526  0.7456225419582052  0.7118824078469361  1.0000
  C   C8        1.0  0.9147418033245458  0.542272985404743  0.7118514374395063  1.0000
  C   C9        1.0  0.5513354149486744  0.32194487014401557  0.49424828652230707  1.0000
  C   C10       1.0  0.9486643574850717  0.1841387590332244  0.4943262657186979  1.0000
  C   C11       1.0  0.4486641586972339  0.6780536081543431  0.5057536421016237  1.0000
  C   C12       1.0  0.05133410193816699  0.8158612002107616  0.5056730055839084  1.0000
  C   C13       1.0  0.39437781597609967  0.15519432580850162  0.4481789412696457  1.0000
  C   C14       1.0  0.10571528112354403  0.39689410475708786  0.4482169532541676  1.0000
  C   C15       1.0  0.6056242157657152  0.8448049363497034  0.5518198275677623  1.0000
  C   C16       1.0  0.8942831076987117  0.6031084806991698  0.5517808631650567  1.0000
  C   C17       1.0  0.34473239746654377  0.22924455269176747  0.16476171302196724  1.0000
  C   C18       1.0  0.15532130953693724  0.6061284040660766  0.1647001801999579  1.0000
  C   C19       1.0  0.6552684014592175  0.7707553354365259  0.8352376147113677  1.0000
  C   C20       1.0  0.8446782565727773  0.39387211003231204  0.8352997064293035  1.0000
  C   C21       1.0  0.5656844290047262  0.41843003082369284  0.3312955219786318  1.0000
  C   C22       1.0  0.9342717304309859  0.25054576962419617  0.3313918668162971  1.0000
  C   C23       1.0  0.43431631062434656  0.581569429816838  0.668705413863329  1.0000
  C   C24       1.0  0.0657266583912772  0.7494568158320616  0.6686059496029274  1.0000
  C   C25       1.0  0.43452510965296653  0.08526995092731206  0.7285744938369448  1.0000
  C   C26       1.0  0.065591764357805  0.1864000480278562  0.7286479858851181  1.0000
  C   C27       1.0  0.5654745825863189  0.9147293823465859  0.2714242185697273  1.0000
  C   C28       1.0  0.9344078572805044  0.8136019114583135  0.2713492716381794  1.0000
  N   N1        1.0  0.497926530753823  0.3839775629291822  0.23148732847998596  1.0000
  N   N2        1.0  0.0020214724883232038  0.38476427471391617  0.23154295948476294  1.0000
  N   N3        1.0  0.5020741495785613  0.616021470223579  0.7685152154706147  1.0000
  N   N4        1.0  0.9979780267885161  0.6152378476967327  0.7684564932584623  1.0000
  O   O1        1.0  0.3658836678780162  0.3378339570365084  0.020244664286416008  1.0000
  O   O2        1.0  0.13425960751889218  0.6418444362727059  0.02020513440940871  1.0000
  O   O3        1.0  0.6341158944636051  0.6621675749618983  0.9797542013455146  1.0000
  O   O4        1.0  0.8657410652773052  0.35815663268008513  0.9797953675465155  1.0000
  O   O5        1.0  0.34619406841891737  0.9726910786232638  0.770593005776995  1.0000
  O   O6        1.0  0.15389991927091265  0.25692230190596604  0.7707590477269692  1.0000
  O   O7        1.0  0.6538032918540324  0.027306289966290333  0.22940769219361815  1.0000
  O   O8        1.0  0.8461041959461966  0.7430802686855601  0.22924110498901476  1.0000
  O   O9        1.0  0.2707676745406005  0.10962076047856326  0.20454208274789215  1.0000
  O   O10       1.0  0.22923242425000717  0.6860812188714789  0.20438149091165075  1.0000
  O   O11       1.0  0.7292331243851676  0.89037912764973  0.7954572449854426  1.0000
  O   O12       1.0  0.7707695444270185  0.313918633698975  0.7956178650370448  1.0000
  O   O13       1.0  0.4959538764817495  0.1208243048179652  0.8223072779648747  1.0000
  O   O14       1.0  0.004194936244743998  0.057078135797759146  0.8222979041528833  1.0000
  O   O15       1.0  0.5040468000825413  0.8791757462348145  0.17769424498838057  1.0000
  O   O16       1.0  0.9958013879426985  0.9429160517251062  0.1777036333744492  1.0000
