data_image0
_chemical_formula_structural       Ag2H24C18S4O4F14
_chemical_formula_sum              "Ag2 H24 C18 S4 O4 F14"
_cell_length_a       7.611019885257187
_cell_length_b       8.064986154666077
_cell_length_c       12.66242991208363
_cell_angle_alpha    78.26723765677187
_cell_angle_beta     74.9585164415457
_cell_angle_gamma    78.72372421059525

_space_group_name_H-M_alt    "P 1"
_space_group_IT_number       1

loop_
  _space_group_symop_operation_xyz
  'x, y, z'

loop_
  _atom_site_type_symbol
  _atom_site_label
  _atom_site_symmetry_multiplicity
  _atom_site_fract_x
  _atom_site_fract_y
  _atom_site_fract_z
  _atom_site_occupancy
  Ag  Ag1       1.0  0.5785952649842939  0.788061024714935  0.022794957883014912  1.0000
  Ag  Ag2       1.0  0.42140430686738733  0.21193743100749876  0.9772054029668028  1.0000
  H   H1        1.0  0.9722822181265232  0.8231717914550669  0.1198009433957026  1.0000
  H   H2        1.0  0.027717152005720905  0.1768279480003088  0.8802000707414736  1.0000
  H   H3        1.0  0.1352214731297038  0.8385109081758131  0.19585839908146604  1.0000
  H   H4        1.0  0.8647779119940607  0.16148883396928673  0.8041434020541517  1.0000
  H   H5        1.0  0.16007032220952763  0.6514292195850615  0.1338620899782939  1.0000
  H   H6        1.0  0.8399292646336746  0.348569238827089  0.8661390578699654  1.0000
  H   H7        1.0  0.06097262581295837  0.831645567425106  0.9063260760604877  1.0000
  H   H8        1.0  0.9390294473755604  0.1683541860707791  0.0936737069936768  1.0000
  H   H9        1.0  0.2654432479164298  0.9000980663255332  0.8168572356875857  1.0000
  H   H10       1.0  0.7345599975680698  0.09990298195812392  0.18314376561009035  1.0000
  H   H11       1.0  0.2671955039770424  0.552735242307655  0.9725104617126661  1.0000
  H   H12       1.0  0.7328079432268949  0.44726452224305996  0.027489886297651422  1.0000
  H   H13       1.0  0.4496488068100035  0.6213168932192445  0.8641415589164866  1.0000
  H   H14       1.0  0.550353266378515  0.37868286027664055  0.13585822413767804  1.0000
  H   H15       1.0  0.25177218874309654  0.6226112826908191  0.7265799434660353  1.0000
  H   H16       1.0  0.7482255906627556  0.3773897267529662  0.27342037200389774  1.0000
  H   H17       1.0  0.07987837588088101  0.5473955356507714  0.8403598354882363  1.0000
  H   H18       1.0  0.9201194335080203  0.45260547917244043  0.15964205397857975  1.0000
  H   H19       1.0  0.5165829188156438  0.4221691878700469  0.6206070914312961  1.0000
  H   H20       1.0  0.4834145551380898  0.5778254026130368  0.3793925406394579  1.0000
  H   H21       1.0  0.6220891689727638  0.2291654540103067  0.6932164831066814  1.0000
  H   H22       1.0  0.37790561691621594  0.7708291251219846  0.3067851670455327  1.0000
  H   H23       1.0  0.6283006532741452  0.4325456442471777  0.7275487830951164  1.0000
  H   H24       1.0  0.37169796299251345  0.5674502356442446  0.2724504932222729  1.0000
  C   C1        1.0  0.7531434841171673  0.7961861513037435  0.786136773597093  1.0000
  C   C2        1.0  0.24686126335255662  0.2038059269875845  0.21386437667973013  1.0000
  C   C3        1.0  0.8534986715348083  0.7635927675212739  0.6660832067812738  1.0000
  C   C4        1.0  0.14650116079442904  0.23641209909270341  0.33391547647239156  1.0000
  C   C5        1.0  0.7346990889605322  0.8393044213377222  0.5792194170383882  1.0000
  C   C6        1.0  0.26530159522103247  0.16069531841362303  0.42077901406117496  1.0000
  C   C7        1.0  0.8042715618291466  0.7719466905219646  0.46542201321485527  1.0000
  C   C8        1.0  0.19573139198677578  0.22805562535634752  0.5345749193795228  1.0000
  C   C9        1.0  0.11673355779083038  0.7904294878518242  0.12517704803978094  1.0000
  C   C10       1.0  0.8832671563737832  0.20957025727894768  0.8748229570566652  1.0000
  C   C11       1.0  0.21170557130845674  0.8153294388065787  0.893391921929343  1.0000
  C   C12       1.0  0.788295157847685  0.18467030901391718  0.10660887016554448  1.0000
  C   C13       1.0  0.2991834416062317  0.6289355292988645  0.8892512962688031  1.0000
  C   C14       1.0  0.7008182281434044  0.37106679166291917  0.1107497933600784  1.0000
  C   C15       1.0  0.22861783765095106  0.5504878859068751  0.8112835739722187  1.0000
  C   C16       1.0  0.7713826897857459  0.4495131456465629  0.18871787141002733  1.0000
  C   C17       1.0  0.547088554719963  0.35847234469510886  0.7003425215837425  1.0000
  C   C18       1.0  0.45290735849042807  0.6415235211558112  0.2996579858166585  1.0000
  S   S1        1.0  0.25710503052685135  0.9014884377500109  0.003956181903760126  1.0000
  S   S2        1.0  0.7428959303317768  0.09851003171696249  0.9960455309006518  1.0000
  S   S3        1.0  0.33311903785005365  0.3302059975024108  0.8000257334790394  1.0000
  S   S4        1.0  0.6668780476563183  0.6697911631362814  0.1999759921648803  1.0000
  O   O1        1.0  0.7641102110457254  0.6680653940989528  0.8622987044914296  1.0000
  O   O2        1.0  0.23589003971392225  0.33193690773885726  0.1376994591859599  1.0000
  O   O3        1.0  0.676087897094348  0.9464703689785524  0.7939580020376908  1.0000
  O   O4        1.0  0.3239058951889504  0.0535306315081883  0.2060477015497568  1.0000
  F   F1        1.0  0.012477594207972191  0.8369472699945958  0.6343420468423346  1.0000
  F   F2        1.0  0.9875188849321075  0.16306142570856957  0.3656574663610927  1.0000
  F   F3        1.0  0.9054620069932112  0.5912459695717942  0.6609615044639058  1.0000
  F   F4        1.0  0.09454463544704336  0.4087589415574583  0.3390368555767794  1.0000
  F   F5        1.0  0.5603877939475979  0.7980458527839571  0.6239806941263026  1.0000
  F   F6        1.0  0.43961803586896764  0.20194750415684842  0.3760169524033827  1.0000
  F   F7        1.0  0.723040713356738  0.012883852219324898  0.5570246301633688  1.0000
  F   F8        1.0  0.27695204838392573  0.9871145589878338  0.44297605389943584  1.0000
  F   F9        1.0  0.7176449119785244  0.8764071493789771  0.39018078624982877  1.0000
  F   F10       1.0  0.28235033610745564  0.1235925569119232  0.6098185330188741  1.0000
  F   F11       1.0  0.9877551466749634  0.770202710301035  0.42698892556564527  1.0000
  F   F12       1.0  0.012246260181164795  0.22980856750046294  0.5730054970542541  1.0000
  F   F13       1.0  0.7663970406232465  0.6116077571731038  0.47486746177084177  1.0000
  F   F14       1.0  0.23361318670866627  0.38839204651345927  0.5251309890296056  1.0000
