data_image0
_chemical_formula_structural       Co4H32C36N4O20
_chemical_formula_sum              "Co4 H32 C36 N4 O20"
_cell_length_a       6.687348878042838
_cell_length_b       7.572745893907491
_cell_length_c       22.456106385572358
_cell_angle_alpha    89.99684166207356
_cell_angle_beta     89.99960539823749
_cell_angle_gamma    90.00008553790781

_space_group_name_H-M_alt    "P 1"
_space_group_IT_number       1

loop_
  _space_group_symop_operation_xyz
  'x, y, z'

loop_
  _atom_site_type_symbol
  _atom_site_label
  _atom_site_symmetry_multiplicity
  _atom_site_fract_x
  _atom_site_fract_y
  _atom_site_fract_z
  _atom_site_occupancy
  Co  Co1       1.0  0.5486958226397293  0.7468830765976833  0.7095241804230881  1.0000
  Co  Co2       1.0  0.45128081224997635  0.7468761547643296  0.2904716715806543  1.0000
  Co  Co3       1.0  0.9512806427303176  0.2531176480210462  0.2095240615970653  1.0000
  Co  Co4       1.0  0.048708599502177194  0.2531186809294113  0.7904743353456922  1.0000
  H   H1        1.0  0.6228725574403101  0.6210753917561929  0.8881350484428339  1.0000
  H   H2        1.0  0.37718610529550733  0.6210617677977268  0.1118782945755399  1.0000
  H   H3        1.0  0.8771477010498716  0.3789240162815091  0.3881140308277935  1.0000
  H   H4        1.0  0.1228342812784007  0.3789383453398186  0.6118762265619679  1.0000
  H   H5        1.0  0.8354427909107899  0.758252221078685  0.8812663708055339  1.0000
  H   H6        1.0  0.16458769642390078  0.7582160773195524  0.1187395112150611  1.0000
  H   H7        1.0  0.6645551931852439  0.24176282930915247  0.38125192194392094  1.0000
  H   H8        1.0  0.3354310388104409  0.24178027839435148  0.6187431244785273  1.0000
  H   H9        1.0  0.5125078830436607  0.9227069347242958  0.8725980412412254  1.0000
  H   H10       1.0  0.48749298063253116  0.9227186589886855  0.1273971976301596  1.0000
  H   H11       1.0  0.9874798303003446  0.07728311369625371  0.3725993505477163  1.0000
  H   H12       1.0  0.012479201580262602  0.07730401874617601  0.6274116828289849  1.0000
  H   H13       1.0  0.3152392817962877  0.869691881100131  0.7890726862353786  1.0000
  H   H14       1.0  0.684755508909724  0.8697034798943404  0.21093734780042442  1.0000
  H   H15       1.0  0.1847486665684173  0.13028205516765468  0.2890576056903242  1.0000
  H   H16       1.0  0.8152254104490169  0.1302956945036016  0.71093551569043  1.0000
  H   H17       1.0  0.9640296598987276  0.6586950593877532  0.67295233584111  1.0000
  H   H18       1.0  0.035979720898311  0.6586790110300099  0.3270482809698976  1.0000
  H   H19       1.0  0.5359924973031553  0.341312933544266  0.1729558891600007  1.0000
  H   H20       1.0  0.4640103550761552  0.3413296836934805  0.827051102124976  1.0000
  H   H21       1.0  0.17861930843049117  0.6769053329637557  0.5826336766889  1.0000
  H   H22       1.0  0.8213975805178321  0.6768980593603613  0.41737060763922074  1.0000
  H   H23       1.0  0.3213748261401292  0.3230929335589892  0.08263563882352538  1.0000
  H   H24       1.0  0.678590610769824  0.3231097969015054  0.9173757007113608  1.0000
  H   H25       1.0  0.6786333448862579  0.91845555941876  0.49163783126985544  1.0000
  H   H26       1.0  0.3213809697935091  0.918475097742082  0.5083508072427989  1.0000
  H   H27       1.0  0.8213755892376683  0.08153625678007609  0.9916386784826442  1.0000
  H   H28       1.0  0.1786178433776087  0.0815075186148064  0.0083593617809257  1.0000
  H   H29       1.0  0.48916402064696735  0.8992722141234991  0.588536128186  1.0000
  H   H30       1.0  0.5108368027575807  0.8992615390369422  0.41144752525583783  1.0000
  H   H31       1.0  0.0108568962857589  0.1007488616797332  0.0885406658864483  1.0000
  H   H32       1.0  0.9891604951844997  0.10070106172299381  0.9114583515321045  1.0000
  C   C1        1.0  0.7924802466234413  0.579614829058933  0.808787130912691  1.0000
  C   C2        1.0  0.20756189570582254  0.5795999654111057  0.191225205464697  1.0000
  C   C3        1.0  0.7075388241302321  0.42039484248309117  0.3087737081839919  1.0000
  C   C4        1.0  0.2924656600066696  0.4204004480635817  0.6912220088735808  1.0000
  C   C5        1.0  0.7080831358870298  0.7026006203907543  0.8565948924649476  1.0000
  C   C6        1.0  0.2919442648181274  0.7025830775027586  0.1434129197170151  1.0000
  C   C7        1.0  0.7919079320350163  0.29740655795181675  0.35657913821236054  1.0000
  C   C8        1.0  0.20807989122828016  0.2974317143827463  0.643414868577942  1.0000
  C   C9        1.0  0.5747092924377171  0.8515311800448798  0.833963715570988  1.0000
  C   C10       1.0  0.42528397174585564  0.8515206939665633  0.1660328532498383  1.0000
  C   C11       1.0  0.9252867756804549  0.1484743959069377  0.3339607075954802  1.0000
  C   C12       1.0  0.074717239770159  0.1484798540709278  0.6660436520963628  1.0000
  C   C13       1.0  0.6995948762653725  0.9854314175632124  0.7984628588981266  1.0000
  C   C14       1.0  0.3003911418407911  0.9854268806903265  0.20153566142839452  1.0000
  C   C15       1.0  0.8003825588230741  0.014544277958066197  0.2984612774631188  1.0000
  C   C16       1.0  0.19960477688865552  0.014566572990766198  0.7015420217197246  1.0000
  C   C17       1.0  0.9076087159553979  0.7158084416402842  0.6316949315963072  1.0000
  C   C18       1.0  0.09240524936916468  0.7158002820202255  0.36830417280790323  1.0000
  C   C19       1.0  0.5924039112936653  0.2841943771453188  0.1316927545553241  1.0000
  C   C20       1.0  0.40759136591210415  0.2842017027386774  0.8683081789266396  1.0000
  C   C21       1.0  0.0252342237655583  0.7252603748634738  0.5806918195945556  1.0000
  C   C22       1.0  0.9747827485974624  0.7252595869769252  0.4193053269001439  1.0000
  C   C23       1.0  0.4747764039162234  0.27473424605297236  0.0806921384940651  1.0000
  C   C24       1.0  0.5252068940963355  0.2747453136541153  0.9193094170165849  1.0000
  C   C25       1.0  0.9430290783929253  0.7936895677776049  0.5280853775744063  1.0000
  C   C26       1.0  0.0569835258287057  0.7937014861885104  0.4719109356976645  1.0000
  C   C27       1.0  0.5569814170452219  0.206305011458312  0.028091409229702397  1.0000
  C   C28       1.0  0.44300923973427325  0.20629157078467128  0.9719185499354309  1.0000
  C   C29       1.0  0.7465117657685097  0.8583408056207702  0.5307519592916066  1.0000
  C   C30       1.0  0.2534964638363562  0.8583600148074524  0.46924002888430744  1.0000
  C   C31       1.0  0.75348371549196  0.14164673751167095  0.030755226283247297  1.0000
  C   C32       1.0  0.24649785773645053  0.14162159159903348  0.9692505972144615  1.0000
  C   C33       1.0  0.6406829690192026  0.8481947957155213  0.5837493306028563  1.0000
  C   C34       1.0  0.3593192616602964  0.8482016329456101  0.4162415113071987  1.0000
  C   C35       1.0  0.8593187847937855  0.15180921802660655  0.0837508511058189  1.0000
  C   C36       1.0  0.14067177816512103  0.15177802913473226  0.9162498841345084  1.0000
  N   N1        1.0  0.7176395939352744  0.7752053848426853  0.6335012105111346  1.0000
  N   N2        1.0  0.2823595201105888  0.7751938028898024  0.3664999014551995  1.0000
  N   N3        1.0  0.7823640201710873  0.22480902530072203  0.1334939575618748  1.0000
  N   N4        1.0  0.21762965935136694  0.22479394952316056  0.8665040777734418  1.0000
  O   O1        1.0  0.7607971872456147  0.6063453811240009  0.7538464014673919  1.0000
  O   O2        1.0  0.2391896728128415  0.6063163409511106  0.2461632091433188  1.0000
  O   O3        1.0  0.7392051877302138  0.3936943549662288  0.2538258414279966  1.0000
  O   O4        1.0  0.2607962596949491  0.3936672137667187  0.7461654763229575  1.0000
  O   O5        1.0  0.8952111950882725  0.45176791078271344  0.8294556476754095  1.0000
  O   O6        1.0  0.10485465283345259  0.4517602383148756  0.1705457177023391  1.0000
  O   O7        1.0  0.6048193688709919  0.5482304760055711  0.3294431681173862  1.0000
  O   O8        1.0  0.395200289149045  0.5482646657677535  0.6705563947651143  1.0000
  O   O9        1.0  0.41760700516584137  0.7756406855084991  0.7993129890955827  1.0000
  O   O10       1.0  0.582390614250059  0.7756419332077653  0.2006907864990524  1.0000
  O   O11       1.0  0.08238370119134689  0.2243500722789591  0.2993021539741321  1.0000
  O   O12       1.0  0.9176039960805937  0.22435758636085268  0.7006990069229744  1.0000
  O   O13       1.0  0.673742226329054  0.9878433163958177  0.7419143246647052  1.0000
  O   O14       1.0  0.3262512728368847  0.9878415013000534  0.2580756896182237  1.0000
  O   O15       1.0  0.8262484566221461  0.012161383865048902  0.2419154059363393  1.0000
  O   O16       1.0  0.17374635175890063  0.0121625640157106  0.7580888285804761  1.0000
  O   O17       1.0  0.8200196707201144  0.08128288978259231  0.8271048161534651  1.0000
  O   O18       1.0  0.17993936824249354  0.08125248409388772  0.1728856585711185  1.0000
  O   O19       1.0  0.679976553258328  0.9187475710135969  0.3271035157168214  1.0000
  O   O20       1.0  0.32002729424219467  0.9187443082731261  0.672897141019952  1.0000
