data_image0
_chemical_formula_structural       Ag2H22C20S2N6O6
_chemical_formula_sum              "Ag2 H22 C20 S2 N6 O6"
_cell_length_a       4.606277909345987
_cell_length_b       10.193463752215058
_cell_length_c       12.540961739707619
_cell_angle_alpha    84.56477138357418
_cell_angle_beta     84.1683931205573
_cell_angle_gamma    85.32941827063603

_space_group_name_H-M_alt    "P 1"
_space_group_IT_number       1

loop_
  _space_group_symop_operation_xyz
  'x, y, z'

loop_
  _atom_site_type_symbol
  _atom_site_label
  _atom_site_symmetry_multiplicity
  _atom_site_fract_x
  _atom_site_fract_y
  _atom_site_fract_z
  _atom_site_occupancy
  Ag  Ag1       1.0  0.22362819319288724  0.3578920757123925  0.0688069239359308  1.0000
  Ag  Ag2       1.0  0.7763548955254508  0.6420949454112233  0.9311924949561288  1.0000
  H   H1        1.0  0.7915656412144825  0.8133448785924461  0.3942790725414581  1.0000
  H   H2        1.0  0.20845652743639678  0.1866595372147231  0.6057337120006138  1.0000
  H   H3        1.0  0.7087786000194997  0.9335228566028846  0.4888117203387239  1.0000
  H   H4        1.0  0.2912360744579559  0.06649631451342941  0.511198522458777  1.0000
  H   H5        1.0  0.048326190633574004  0.931030286856327  0.4098464365751368  1.0000
  H   H6        1.0  0.9517054291349611  0.0689821255860679  0.5901598379632275  1.0000
  H   H7        1.0  0.45510847494362844  0.8668228231357703  0.2544810675546998  1.0000
  H   H8        1.0  0.5449424807365091  0.13317292554403787  0.7455171699929223  1.0000
  H   H9        1.0  0.18042063819190446  0.10753395465704327  0.0313297269683446  1.0000
  H   H10       1.0  0.8195831988538346  0.8924483482371027  0.9686678369789945  1.0000
  H   H11       1.0  0.9928667605813856  0.0035089283025798  0.1342935200530491  1.0000
  H   H12       1.0  0.007150512565033181  0.996478575695179  0.865717572822632  1.0000
  H   H13       1.0  0.3024114420813576  0.9367979208193734  0.05883626120868968  1.0000
  H   H14       1.0  0.6975968948278322  0.0631824903252394  0.9411668983161761  1.0000
  H   H15       1.0  0.04989374910657318  0.31119538548182385  0.3603590211653795  1.0000
  H   H16       1.0  0.9500682561215257  0.6888062984650248  0.639648647825666  1.0000
  H   H17       1.0  0.0924605286467042  0.47915051233522377  0.3073450591814505  1.0000
  H   H18       1.0  0.9075135057770751  0.5208562586064502  0.6926610379258803  1.0000
  H   H19       1.0  0.6049229968724461  0.6380827971980169  0.3282927409967726  1.0000
  H   H20       1.0  0.39502434847877776  0.3619176784547022  0.6717082959942076  1.0000
  H   H21       1.0  0.7629803278895436  0.2791749737009539  0.5293732938060671  1.0000
  H   H22       1.0  0.23699109880818975  0.7208248042519401  0.47062865562104855  1.0000
  C   C1        1.0  0.6589285901729979  0.21838022134949142  0.2384312175679852  1.0000
  C   C2        1.0  0.34108065292893036  0.7816170086061474  0.7615665855799492  1.0000
  C   C3        1.0  0.6893214270755692  0.0101404114795542  0.3236531822222374  1.0000
  C   C4        1.0  0.31069489947862644  0.9898638485104811  0.6763462358571743  1.0000
  C   C5        1.0  0.8158711333871337  0.915972293152322  0.40848144899876365  1.0000
  C   C6        1.0  0.184134001163649  0.08404274358180429  0.59151984554925  1.0000
  C   C7        1.0  0.5075121008746138  0.9693695827559807  0.25260606074402847  1.0000
  C   C8        1.0  0.4925281842403705  0.030625050628081903  0.7473925928468432  1.0000
  C   C9        1.0  0.4004405954116166  0.06292094759008651  0.1742401104686451  1.0000
  C   C10       1.0  0.5995988821591209  0.9370677246842476  0.8257574480975621  1.0000
  C   C11       1.0  0.20818037323969216  0.026790249802800807  0.09454496983119749  1.0000
  C   C12       1.0  0.791850501292174  0.973196382283298  0.9054593953640547  1.0000
  C   C13       1.0  0.9343585956471471  0.40531505072988966  0.3345825836208717  1.0000
  C   C14       1.0  0.06560806384264592  0.5946885757440725  0.6654104322984794  1.0000
  C   C15       1.0  0.7104747206263298  0.45367015725896215  0.42002248115475277  1.0000
  C   C16       1.0  0.28947140645949804  0.5463461426275769  0.5799765339984546  1.0000
  C   C17       1.0  0.5604211729626556  0.5781364032136197  0.40418753976396  1.0000
  C   C18       1.0  0.43952307287228354  0.42187887411932934  0.5958100195323723  1.0000
  C   C19       1.0  0.6469710561251957  0.37599982742273136  0.5165232539224291  1.0000
  C   C20       1.0  0.352978414866264  0.6240105857015337  0.4834785206520776  1.0000
  S   S1        1.0  0.7670843317786903  0.3815735387701551  0.21235445550786375  1.0000
  S   S2        1.0  0.23291223908567102  0.6184305102186728  0.7876487751471544  1.0000
  N   N1        1.0  0.4750589992249061  0.18862748398334625  0.16820502171098178  1.0000
  N   N2        1.0  0.5249536852490523  0.8113657740169772  0.8317850173339777  1.0000
  N   N3        1.0  0.766165569644258  0.136451040142191  0.3162272458833542  1.0000
  N   N4        1.0  0.2338459327701515  0.8635551488992306  0.6837729638132402  1.0000
  N   N5        1.0  0.2949072358757263  0.6675608213942752  0.11939359985721151  1.0000
  N   N6        1.0  0.70509910368974  0.3324304126092699  0.8806015802427465  1.0000
  O   O1        1.0  0.22719822756918961  0.5984972600368081  0.0452537707445515  1.0000
  O   O2        1.0  0.7728361869831916  0.40149625779528003  0.95473637894613  1.0000
  O   O3        1.0  0.12724352142694773  0.6816790780873561  0.20289519744999043  1.0000
  O   O4        1.0  0.8727495398473124  0.3183040476316564  0.7970962510130022  1.0000
  O   O5        1.0  0.537979060213516  0.7207933779604616  0.10443260467042138  1.0000
  O   O6        1.0  0.4620157104690463  0.2792096391493146  0.8955675733290531  1.0000
