data_image0
_chemical_formula_structural       Cu8H100C80S8I8N4O8
_chemical_formula_sum              "Cu8 H100 C80 S8 I8 N4 O8"
_cell_length_a       11.72121694351054
_cell_length_b       11.721105046262906
_cell_length_c       24.20079538917852
_cell_angle_alpha    99.84962420855094
_cell_angle_beta     99.84936263189724
_cell_angle_gamma    107.44409220416406

_space_group_name_H-M_alt    "P 1"
_space_group_IT_number       1

loop_
  _space_group_symop_operation_xyz
  'x, y, z'

loop_
  _atom_site_type_symbol
  _atom_site_label
  _atom_site_symmetry_multiplicity
  _atom_site_fract_x
  _atom_site_fract_y
  _atom_site_fract_z
  _atom_site_occupancy
  Cu  Cu1       1.0  0.02423031388129003  0.3047749523120373  0.2082460719397758  1.0000
  Cu  Cu2       1.0  0.19522244401365196  0.47575884299254767  0.291753496342217  1.0000
  Cu  Cu3       1.0  0.9757717690065278  0.6952277183781421  0.7917578123783217  1.0000
  Cu  Cu4       1.0  0.8047790196737522  0.5242323638859718  0.7082451398598834  1.0000
  Cu  Cu5       1.0  0.06135113699710362  0.5375867619397425  0.2127690174028203  1.0000
  Cu  Cu6       1.0  0.9624137766879172  0.43865501274520113  0.2872292596138237  1.0000
  Cu  Cu7       1.0  0.9386482025397029  0.4624081475963209  0.7872284701030097  1.0000
  Cu  Cu8       1.0  0.03759322926403311  0.5613533282267443  0.7127740688649882  1.0000
  H   H1        1.0  0.3573431000223195  0.049444849996866984  0.191777104557687  1.0000
  H   H2        1.0  0.4505526326281953  0.14265417988509915  0.3082264637629919  1.0000
  H   H3        1.0  0.6426583492484214  0.950549618381672  0.8082251771416297  1.0000
  H   H4        1.0  0.5494488380826539  0.8573446645849715  0.6917758772945319  1.0000
  H   H5        1.0  0.7636154030239412  0.847947921773724  0.9678287622210038  1.0000
  H   H6        1.0  0.6520567754366269  0.7363983695646824  0.5321688036245362  1.0000
  H   H7        1.0  0.23637431101220588  0.15204331275819533  0.03216558203509831  1.0000
  H   H8        1.0  0.3479434232641624  0.26363470321925336  0.46783621706821793  1.0000
  H   H9        1.0  0.7359586380971735  0.7070252259512632  0.9913605838509555  1.0000
  H   H10       1.0  0.7929718811702599  0.7640497681748145  0.5086319068723526  1.0000
  H   H11       1.0  0.26404198163989895  0.29296828912692524  0.008635427032828614  1.0000
  H   H12       1.0  0.2070316807355327  0.23597333420846678  0.4913772417452337  1.0000
  H   H13       1.0  0.9084305364759692  0.755888595026463  0.9394801027926508  1.0000
  H   H14       1.0  0.7441227442373233  0.591580281825543  0.5605182239319646  1.0000
  H   H15       1.0  0.0915722661591545  0.24412124565836987  0.060514566369001  1.0000
  H   H16       1.0  0.25587066074602677  0.4084384063226595  0.4394908835243997  1.0000
  H   H17       1.0  0.989476990984791  0.8912227740200935  0.9961070259865183  1.0000
  H   H18       1.0  0.6087790887669585  0.5105372570012964  0.5038975534014514  1.0000
  H   H19       1.0  0.0105236037574628  0.10876648517069751  0.0038943698176865  1.0000
  H   H20       1.0  0.3912221747955728  0.489490514459071  0.49610937588595055  1.0000
  H   H21       1.0  0.11736883168440228  0.8254149009556856  0.9531866350089473  1.0000
  H   H22       1.0  0.6745902374466654  0.38265371863397507  0.5468185739792092  1.0000
  H   H23       1.0  0.8826243281322659  0.1745654510627546  0.046806463675402234  1.0000
  H   H24       1.0  0.32543630263421625  0.6173867652822622  0.45319698299103817  1.0000
  H   H25       1.0  0.3094119111336941  0.7884811394972863  0.9452716348522049  1.0000
  H   H26       1.0  0.711518102434276  0.1906059308040967  0.5547362787251799  1.0000
  H   H27       1.0  0.6905955942217686  0.2115160472266382  0.05473027160310554  1.0000
  H   H28       1.0  0.28848709334619127  0.8094176029759269  0.4452726648265752  1.0000
  H   H29       1.0  0.37858828744440143  0.6456574157339645  0.9979155529827324  1.0000
  H   H30       1.0  0.8543334447208082  0.12141458185700343  0.5020879606900266  1.0000
  H   H31       1.0  0.6214310336170356  0.3543567505090266  0.0020953980602343362  1.0000
  H   H32       1.0  0.14564663997615673  0.8785837565582  0.49790514639034467  1.0000
  H   H33       1.0  0.2524800770573847  0.5460474094351682  0.06111326288763762  1.0000
  H   H34       1.0  0.9539293035964461  0.2475089464521148  0.43888445160663997  1.0000
  H   H35       1.0  0.747521373663922  0.4539615965245079  0.9388900551740706  1.0000
  H   H36       1.0  0.04604512859387464  0.7525048892469642  0.5611141258457977  1.0000
  H   H37       1.0  0.06753283513180722  0.4925826617844465  0.09176727483514921  1.0000
  H   H38       1.0  0.0074056044138970925  0.4324678069841853  0.40823010244999847  1.0000
  H   H39       1.0  0.9324688691727446  0.5074060491638621  0.9082261294344678  1.0000
  H   H40       1.0  0.9925843445805499  0.5675357096069577  0.5917709347932815  1.0000
  H   H41       1.0  0.9467567916589701  0.550429052564951  0.06995945464690578  1.0000
  H   H42       1.0  0.9495569210206225  0.553241857583224  0.43003453052757834  1.0000
  H   H43       1.0  0.05323848500103875  0.44955061788766687  0.9300275496736603  1.0000
  H   H44       1.0  0.05043875182425262  0.4467669275902255  0.569964919273673  1.0000
  H   H45       1.0  0.2713025836041397  0.7702967110553304  0.22341984177468535  1.0000
  H   H46       1.0  0.7296977307873647  0.22869258504488968  0.2765772373237851  1.0000
  H   H47       1.0  0.7286873407652621  0.22968401296528676  0.7765755251809596  1.0000
  H   H48       1.0  0.2703153818065617  0.7713056686806611  0.7234220224794328  1.0000
  H   H49       1.0  0.2865149949074208  0.6768841016581817  0.1610878489819001  1.0000
  H   H50       1.0  0.8231141023531947  0.21348100140561868  0.3389083814311888  1.0000
  H   H51       1.0  0.7134736956966421  0.3231066487992464  0.8389036690335772  1.0000
  H   H52       1.0  0.1768972952411049  0.786532270617151  0.6610974932968361  1.0000
  H   H53       1.0  0.4064390698559421  0.8837658523739549  0.1672297942107193  1.0000
  H   H54       1.0  0.6162328605449617  0.09355919224992003  0.3327679632316888  1.0000
  H   H55       1.0  0.593553696591023  0.11622233808576968  0.8327675251304213  1.0000
  H   H56       1.0  0.38377505578180404  0.9064453110116871  0.6672316879990419  1.0000
  H   H57       1.0  0.28008262104798837  0.8464694296941674  0.10812193550980717  1.0000
  H   H58       1.0  0.6535363627607325  0.21991326678131898  0.39187815683364147  1.0000
  H   H59       1.0  0.7199115330836181  0.15352858808208972  0.8918777422049616  1.0000
  H   H60       1.0  0.3464701458918428  0.7800915706533547  0.6081201130276384  1.0000
  H   H61       1.0  0.09589084214584899  0.9061921809635081  0.14210017469233804  1.0000
  H   H62       1.0  0.5938124516469685  0.40411754438944314  0.35789868220670934  1.0000
  H   H63       1.0  0.9041121672678258  0.09380726941416387  0.8579009614474913  1.0000
  H   H64       1.0  0.4061960069635405  0.5958845568072281  0.6420996657169341  1.0000
  H   H65       1.0  0.18598081691153814  0.011083417625840808  0.1088023613950071  1.0000
  H   H66       1.0  0.48893253010748333  0.31402869108991655  0.391203104358283  1.0000
  H   H67       1.0  0.8140215659085044  0.9889154680317489  0.8912008769814648  1.0000
  H   H68       1.0  0.5110833241030905  0.6859734448918858  0.6087979776901733  1.0000
  H   H69       1.0  0.2243605473847197  0.18517786168289527  0.1937017176071194  1.0000
  H   H70       1.0  0.3148204011930744  0.27562785498033554  0.3063090826222208  1.0000
  H   H71       1.0  0.7756380309751167  0.8148156632565675  0.8063059027011334  1.0000
  H   H72       1.0  0.6851808864813267  0.7243683174197176  0.6936985017916373  1.0000
  H   H73       1.0  0.14038510208129648  0.08165566590389521  0.2301017124575253  1.0000
  H   H74       1.0  0.4183317401409212  0.3595971043017841  0.2699022784829026  1.0000
  H   H75       1.0  0.8596029010775369  0.9183291493545341  0.769900878854024  1.0000
  H   H76       1.0  0.5816635740242759  0.6403954376400521  0.7301003076783771  1.0000
  H   H77       1.0  0.9214527666495727  0.915366186235076  0.16048185074254215  1.0000
  H   H78       1.0  0.5846294355231407  0.5785424738801056  0.3395193744100666  1.0000
  H   H79       1.0  0.07854269824999718  0.08462779298110963  0.8395136339227848  1.0000
  H   H80       1.0  0.4153782763270615  0.4214549812199453  0.6604854608187765  1.0000
  H   H81       1.0  0.8971550481521007  0.024231012515912292  0.2152640276482742  1.0000
  H   H82       1.0  0.47576441572377354  0.6028430318521957  0.2847367748932825  1.0000
  H   H83       1.0  0.10283740221160567  0.9757603455785645  0.7847330085646648  1.0000
  H   H84       1.0  0.5242425796500285  0.397157791732333  0.7152682930087337  1.0000
  H   H85       1.0  0.7186565698835068  0.08721622445795425  0.19651243615911082  1.0000
  H   H86       1.0  0.41277587775271485  0.7813362288987521  0.3034856306820616  1.0000
  H   H87       1.0  0.28134011791943453  0.9127708696172975  0.8034850986649574  1.0000
  H   H88       1.0  0.5872256649555042  0.21865418607108478  0.6965130763020896  1.0000
  H   H89       1.0  0.5165809470041013  0.061756385825717214  0.13318319634333164  1.0000
  H   H90       1.0  0.438240252925695  0.9834251579442396  0.3668211776013949  1.0000
  H   H91       1.0  0.4834135487732002  0.9382214028366038  0.8668184559884724  1.0000
  H   H92       1.0  0.5617703818432319  0.016574972584237565  0.6331756619493306  1.0000
  H   H93       1.0  0.4546571567939353  0.9317386756766127  0.03282645305662871  1.0000
  H   H94       1.0  0.5682675524901556  0.04534559043601427  0.46717358387087426  1.0000
  H   H95       1.0  0.5453299665577874  0.06824733318996604  0.967177099075606  1.0000
  H   H96       1.0  0.43175176663906717  0.9546674775925655  0.5328146609877393  1.0000
  H   H97       1.0  0.5952283329514217  0.8368508938229483  0.9945289405028745  1.0000
  H   H98       1.0  0.6631479567630479  0.9047734003403322  0.5054699782688132  1.0000
  H   H99       1.0  0.4047552315625109  0.16314167577228736  0.00546935371240661  1.0000
  H   H100      1.0  0.33686691277335273  0.09525844132078037  0.4945267641247925  1.0000
  C   C1        1.0  0.802020067689327  0.8006707874948664  0.9979996031615104  1.0000
  C   C2        1.0  0.6993301344682549  0.6979870237500805  0.5019996829310145  1.0000
  C   C3        1.0  0.19797693062398744  0.19932003893521263  0.0019955462977207976  1.0000
  C   C4        1.0  0.30067800240014725  0.302033023070763  0.4980103067840957  1.0000
  C   C5        1.0  0.922821015710696  0.7968385005618404  0.98580310836401  1.0000
  C   C6        1.0  0.7031619425740133  0.5771914992717202  0.5141977158495052  1.0000
  C   C7        1.0  0.0771840476765391  0.20316167755653683  0.014192791699798604  1.0000
  C   C8        1.0  0.2968342184426405  0.4228278096327216  0.4858095683548811  1.0000
  C   C9        1.0  0.0768138734894563  0.7094404600776727  0.0133547370591387  1.0000
  C   C10       1.0  0.7905511514458115  0.42319170504509196  0.4866386009795392  1.0000
  C   C11       1.0  0.9231845971881613  0.2905446237708277  0.9866309166361164  1.0000
  C   C12       1.0  0.20944208463394895  0.5768317082163535  0.5133685661313052  1.0000
  C   C13       1.0  0.14713939416230926  0.7659815247814522  0.9779794816410927  1.0000
  C   C14       1.0  0.7340121073057662  0.35286824758031105  0.5220220755701704  1.0000
  C   C15       1.0  0.8528503187070767  0.2339845134860498  0.02201736445725542  1.0000
  C   C16       1.0  0.2660056101648963  0.6471535018470363  0.47798282590658664  1.0000
  C   C17       1.0  0.25607685060824553  0.7436862674076821  0.9731057492004709  1.0000
  C   C18       1.0  0.7563027304937222  0.2439358957023147  0.5268982625153313  1.0000
  C   C19       1.0  0.7439143771359014  0.2563013171444482  0.026892775058357205  1.0000
  C   C20       1.0  0.24369035812255666  0.7560966187639195  0.47310702360820045  1.0000
  C   C21       1.0  0.2943874550507459  0.6640073839010656  0.0023286134424651966  1.0000
  C   C22       1.0  0.8359774982571082  0.2056158835538471  0.49767210356582586  1.0000
  C   C23       1.0  0.7056227076114686  0.33599071829409916  0.9976759141876389  1.0000
  C   C24       1.0  0.16400100630737313  0.7943876343518284  0.5023231260782168  1.0000
  C   C25       1.0  0.22386062462789613  0.608435619638186  0.03768340943710771  1.0000
  C   C26       1.0  0.8915474380618065  0.27614777328604856  0.46231059265512203  1.0000
  C   C27       1.0  0.7761652487368454  0.3915516942231963  0.9623201334089162  1.0000
  C   C28       1.0  0.10844650755687732  0.7238567558995188  0.5376780435144398  1.0000
  C   C29       1.0  0.11593722545846671  0.6310714265808812  0.044566793123941316  1.0000
  C   C30       1.0  0.8689132028532711  0.38405232540832673  0.45542989250422045  1.0000
  C   C31       1.0  0.8840425704520455  0.368916896887754  0.9554322968841049  1.0000
  C   C32       1.0  0.1310747583082873  0.6159595926147362  0.5445665400440376  1.0000
  C   C33       1.0  0.046676811969000205  0.574995085422927  0.08501611375225342  1.0000
  C   C34       1.0  0.924992198275234  0.45332135921347577  0.4149804920859169  1.0000
  C   C35       1.0  0.9533210071201668  0.4249851778180943  0.9149770271000649  1.0000
  C   C36       1.0  0.07500412817626777  0.5466854667820159  0.585019583329931  1.0000
  C   C37       1.0  0.24897621230972788  0.7487426211413605  0.1759639738425136  1.0000
  C   C38       1.0  0.751253511885352  0.25102016664786936  0.3240328199555833  1.0000
  C   C39       1.0  0.7510120097423324  0.25124598077861304  0.8240297879737  1.0000
  C   C40       1.0  0.24875323556404547  0.748986173958592  0.6759702368188699  1.0000
  C   C41       1.0  0.3064335421083797  0.8645081389950133  0.15568297371779494  1.0000
  C   C42       1.0  0.6354900550030678  0.1935608275433226  0.3443145218592534  1.0000
  C   C43       1.0  0.6935589082553335  0.1354832190994628  0.844314062495144  1.0000
  C   C44       1.0  0.36451843590951694  0.8064425084490169  0.6556856842040162  1.0000
  C   C45       1.0  0.17476100299428052  0.9918305282952034  0.15136480786551942  1.0000
  C   C46       1.0  0.508166065383385  0.3252343313188106  0.3486381516274832  1.0000
  C   C47       1.0  0.8252333990617302  0.008161972459113553  0.8486368809768123  1.0000
  C   C48       1.0  0.4918379351602909  0.674764368337698  0.6513639526133446  1.0000
  C   C49       1.0  0.14963474649888306  0.09730123863483445  0.18729565732535752  1.0000
  C   C50       1.0  0.4026996506938972  0.3503620931767132  0.31270903693187796  1.0000
  C   C51       1.0  0.850361722127026  0.9026927274621601  0.8127071687894089  1.0000
  C   C52       1.0  0.5973078132319005  0.6496408789452773  0.6872937871694093  1.0000
  C   C53       1.0  0.8947272088849302  0.9975483958463444  0.16919613292411384  1.0000
  C   C54       1.0  0.5024463762103437  0.6052688050140846  0.3308064857573001  1.0000
  C   C55       1.0  0.10526462546329916  0.0024499149154593195  0.830801266102263  1.0000
  C   C56       1.0  0.4975548683000285  0.3947292738861777  0.6691974417355055  1.0000
  C   C57       1.0  0.7719559652906725  0.97877657864089  0.13184272802818242  1.0000
  C   C58       1.0  0.5212165844179566  0.7280435625714077  0.3681585897700757  1.0000
  C   C59       1.0  0.22804273150146767  0.021217148777260896  0.868155932644477  1.0000
  C   C60       1.0  0.47879982996176573  0.2719606676411461  0.6318466926081358  1.0000
  C   C61       1.0  0.6908971239658969  0.03199741886795967  0.15225660828383525  1.0000
  C   C62       1.0  0.4679985348509986  0.809097192927993  0.3477467779103662  1.0000
  C   C63       1.0  0.3090971776291841  0.9679914977035085  0.8477449504182389  1.0000
  C   C64       1.0  0.5320099957568802  0.19089647876842988  0.6522479359399044  1.0000
  C   C65       1.0  0.5776621819793846  0.01749175852249617  0.11684642004333771  1.0000
  C   C66       1.0  0.4825027440413692  0.922336147957509  0.3831560769642337  1.0000
  C   C67       1.0  0.4223187595480556  0.9824943506117381  0.8831592239084359  1.0000
  C   C68       1.0  0.5175075473474848  0.07768033278703983  0.6168342134024272  1.0000
  C   C69       1.0  0.5438504591826714  0.9463219525301199  0.0604994522508591  1.0000
  C   C70       1.0  0.5536710099380855  0.9561483217616102  0.43950068344035037  1.0000
  C   C71       1.0  0.4561346551798525  0.05365742299356  0.9395029740327774  1.0000
  C   C72       1.0  0.4463544783331202  0.043871786397190304  0.5604936896629553  1.0000
  C   C73       1.0  0.6234069389463882  0.8922779121147358  0.03869296929610042  1.0000
  C   C74       1.0  0.6077196743034889  0.8765911129348539  0.4613097682703612  1.0000
  C   C75       1.0  0.3765817069571185  0.1077080852616066  0.9613084488486194  1.0000
  C   C76       1.0  0.3923042914159397  0.12342900671417584  0.5386867388204521  1.0000
  C   C77       1.0  0.7382876892435135  0.9104417586226601  0.07391081568922435  1.0000
  C   C78       1.0  0.5895491922342943  0.7617090372053782  0.42608889056175064  1.0000
  C   C79       1.0  0.26169957571499247  0.08955270771199543  0.9260884107326536  1.0000
  C   C80       1.0  0.41045949402725773  0.2383083671422385  0.5739089072890096  1.0000
  S   S1        1.0  0.08134917462156473  0.6780832503227714  0.1572770337586888  1.0000
  S   S2        1.0  0.8219125053827199  0.41864808420316296  0.34271658901080576  1.0000
  S   S3        1.0  0.9186380187093448  0.3219011088289961  0.8427147715285059  1.0000
  S   S4        1.0  0.17808745690920355  0.5813581689404119  0.6572807023323862  1.0000
  S   S5        1.0  0.012350633436277377  0.12255679352937686  0.15289224835488113  1.0000
  S   S6        1.0  0.3774388113400989  0.4876452573513747  0.347109684913768  1.0000
  S   S7        1.0  0.9876495247722373  0.8774422106029153  0.8471097111850627  1.0000
  S   S8        1.0  0.6225647259406559  0.5123550524613807  0.6528937934161904  1.0000
  I   I1        1.0  0.832610416322396  0.37558565521167975  0.17900894359839012  1.0000
  I   I2        1.0  0.12441066961545039  0.6673905174008469  0.3209880312090548  1.0000
  I   I3        1.0  0.16738800226144004  0.6244055746473055  0.8209939605787328  1.0000
  I   I4        1.0  0.8755948103159737  0.33261007726563463  0.6790082821232061  1.0000
  I   I5        1.0  0.23694211197879161  0.4353041609972694  0.1831870583464337  1.0000
  I   I6        1.0  0.06468740251737881  0.263052005440855  0.3168132912440029  1.0000
  I   I7        1.0  0.763065388087597  0.5646892670329539  0.8168157178204752  1.0000
  I   I8        1.0  0.9353002613837165  0.7369277224629375  0.6831843830141225  1.0000
  N   N1        1.0  0.2815663977071027  0.9724611491348939  0.18386972502553087  1.0000
  N   N2        1.0  0.5275474787166274  0.2184397360790841  0.3161344787444307  1.0000
  N   N3        1.0  0.718432679772441  0.027531880239841842  0.8161329350545827  1.0000
  N   N4        1.0  0.4724622295264428  0.7815636147618936  0.6838651089845558  1.0000
  O   O1        1.0  0.8257212475632586  0.8673199837571489  0.05644748679373629  1.0000
  O   O2        1.0  0.63267049465761  0.6742746772707094  0.44354939374107977  1.0000
  O   O3        1.0  0.17427697336961515  0.13267461621527613  0.9435461746196055  1.0000
  O   O4        1.0  0.3673377447758667  0.32573429594770437  0.5564542454732617  1.0000
  O   O5        1.0  0.9682427225144465  0.7247303335813909  0.020142507457777032  1.0000
  O   O6        1.0  0.7752588780768689  0.5317576444412639  0.479853026416123  1.0000
  O   O7        1.0  0.03174170775971428  0.27524576722258615  0.9798474162259723  1.0000
  O   O8        1.0  0.224741179017137  0.4682669708745949  0.5201563199869881  1.0000
