data_image0
_chemical_formula_structural       Cd2H36C28N4O16F8
_chemical_formula_sum              "Cd2 H36 C28 N4 O16 F8"
_cell_length_a       5.1882428322693634
_cell_length_b       10.59563664130122
_cell_length_c       16.837700998431636
_cell_angle_alpha    90.00086287226063
_cell_angle_beta     90.40798466817166
_cell_angle_gamma    90.00017867071287

_space_group_name_H-M_alt    "P 1"
_space_group_IT_number       1

loop_
  _space_group_symop_operation_xyz
  'x, y, z'

loop_
  _atom_site_type_symbol
  _atom_site_label
  _atom_site_symmetry_multiplicity
  _atom_site_fract_x
  _atom_site_fract_y
  _atom_site_fract_z
  _atom_site_occupancy
  Cd  Cd1       1.0  0.9999957879825485  0.9999962756323129  0.9999998182526967  1.0000
  Cd  Cd2       1.0  0.500022936776368  0.5000038005428848  0.500000360686933  1.0000
  H   H1        1.0  0.09782032355885659  0.7769109594264166  0.11914102053554393  1.0000
  H   H2        1.0  0.4021373409789533  0.2769179862637544  0.3808667943137821  1.0000
  H   H3        1.0  0.9021267837537366  0.22308814767926316  0.8808703763814948  1.0000
  H   H4        1.0  0.5978892095288019  0.7230773456240412  0.6191349956572625  1.0000
  H   H5        1.0  0.22665186841135918  0.6992822662491208  0.3003424238496848  1.0000
  H   H6        1.0  0.27329373127678747  0.1992837106874958  0.1996604547891963  1.0000
  H   H7        1.0  0.7733168872911734  0.30071495316683894  0.6996584154807267  1.0000
  H   H8        1.0  0.726690293741754  0.8007163401359139  0.8003440425210259  1.0000
  H   H9        1.0  0.47742788324401897  0.6199170140451642  0.24928142999895908  1.0000
  H   H10       1.0  0.022514825355628397  0.1199336297566234  0.2507272445784636  1.0000
  H   H11       1.0  0.5225406734209203  0.38008114921449737  0.7507241597456586  1.0000
  H   H12       1.0  0.9774613162705065  0.8800805778847263  0.7492813618252685  1.0000
  H   H13       1.0  0.16445099032123522  0.6309415951465668  0.20485715480869265  1.0000
  H   H14       1.0  0.3354958926717018  0.13094830946104  0.2951462998795621  1.0000
  H   H15       1.0  0.8355235473342474  0.3690518491338892  0.7951437201892945  1.0000
  H   H16       1.0  0.6644862050073073  0.8690479662223397  0.7048581855185035  1.0000
  H   H17       1.0  0.6103982252694778  0.9606578330052643  0.21276763501100504  1.0000
  H   H18       1.0  0.8895897010142804  0.4606766749071909  0.2872378292872711  1.0000
  H   H19       1.0  0.38959378270335776  0.03933749881795019  0.7872303780438017  1.0000
  H   H20       1.0  0.1104366505379559  0.5393384765187861  0.7127687111840829  1.0000
  H   H21       1.0  0.7761324902157226  0.8150170022613565  0.22629199748414666  1.0000
  H   H22       1.0  0.7238465847146359  0.31503817009159013  0.2737091215572392  1.0000
  H   H23       1.0  0.2238499806377305  0.18497266681837493  0.7737035808652097  1.0000
  H   H24       1.0  0.2761720326566959  0.6849750937677896  0.7262979651270102  1.0000
  H   H25       1.0  0.5713700392298762  0.8715467819226957  0.30301655973450187  1.0000
  H   H26       1.0  0.9286229687489822  0.3715615311613548  0.19698634586590913  1.0000
  H   H27       1.0  0.42862965314703433  0.1284466623429594  0.6969820946926719  1.0000
  H   H28       1.0  0.07140338276222019  0.6284441824173825  0.8030201945624003  1.0000
  H   H29       1.0  0.7706445469079952  0.17185527616844354  0.09029480111225043  1.0000
  H   H30       1.0  0.729359942139638  0.6718650489459819  0.4097128977576362  1.0000
  H   H31       1.0  0.2293454093529732  0.8281428870446773  0.9097061690667305  1.0000
  H   H32       1.0  0.270672365551654  0.3281519900012242  0.590289521798461  1.0000
  H   H33       1.0  0.5680714121740351  0.05197572456470569  0.09731128592250123  1.0000
  H   H34       1.0  0.9319437974108312  0.5519883606204559  0.4026906402587685  1.0000
  H   H35       1.0  0.4319223987167647  0.9480186635117746  0.9026897080291292  1.0000
  H   H36       1.0  0.06809436688225648  0.44802679073857377  0.597310033569805  1.0000
  C   C1        1.0  0.8593652149258516  0.7110505323361878  0.9746133069874006  1.0000
  C   C2        1.0  0.6406379039978987  0.2110522254276859  0.5253746517887167  1.0000
  C   C3        1.0  0.14063457696779838  0.28894196811525313  0.025382972230509906  1.0000
  C   C4        1.0  0.35936393964865226  0.7889468814810955  0.4746186703480718  1.0000
  C   C5        1.0  0.6790945350498065  0.5999746859796815  0.9872562128678624  1.0000
  C   C6        1.0  0.8209170555597326  0.0999790797787625  0.5127355424599999  1.0000
  C   C7        1.0  0.32090740810117785  0.40002064576071217  0.012734734046752303  1.0000
  C   C8        1.0  0.1790905700192482  0.9000115330708951  0.4872578153228417  1.0000
  C   C9        1.0  0.6308976013750538  0.5527965791882538  0.06284803653660022  1.0000
  C   C10       1.0  0.8690929581629591  0.052793646943342806  0.4371442416083583  1.0000
  C   C11       1.0  0.3690793363850133  0.4472100779393884  0.937141568193063  1.0000
  C   C12       1.0  0.13091086255482048  0.9472026285976513  0.562847904807967  1.0000
  C   C13       1.0  0.4553871377944887  0.45583975347367567  0.07539030915080502  1.0000
  C   C14       1.0  0.04461149991615088  0.9558383829916082  0.4245985928832568  1.0000
  C   C15       1.0  0.5446052433979389  0.5441593533778432  0.9245987969026432  1.0000
  C   C16       1.0  0.9554039594056152  0.0441635552423918  0.575391843524784  1.0000
  C   C17       1.0  0.25311595902988426  0.8402005531103997  0.13962304555406044  1.0000
  C   C18       1.0  0.24685767448428922  0.3402154062363963  0.3603854418815119  1.0000
  C   C19       1.0  0.7468467410209597  0.1597966663832651  0.86038428990517  1.0000
  C   C20       1.0  0.7531686023780749  0.6597884197950066  0.6396228799418965  1.0000
  C   C21       1.0  0.30759027567937386  0.6803313219102876  0.24147549309476093  1.0000
  C   C22       1.0  0.19236276903682636  0.1803445297544002  0.2585296354929626  1.0000
  C   C23       1.0  0.6923841624470554  0.3196602348302093  0.7585277570995717  1.0000
  C   C24       1.0  0.8076308428492068  0.8196583524435754  0.741476108907321  1.0000
  C   C25       1.0  0.596570337125158  0.866316481397135  0.23851414693807277  1.0000
  C   C26       1.0  0.903407181933943  0.3663375282998516  0.2614892096167908  1.0000
  C   C27       1.0  0.40341781618912625  0.13367601906964674  0.7614838423139505  1.0000
  C   C28       1.0  0.09661138567696528  0.633675735574272  0.7385190646699372  1.0000
  N   N1        1.0  0.380710262561351  0.7983804203817614  0.20321630221224046  1.0000
  N   N2        1.0  0.11926303218414348  0.2983982805202459  0.2967912099106656  1.0000
  N   N3        1.0  0.6192717355639843  0.20160830505331973  0.7967905583563423  1.0000
  N   N4        1.0  0.8807441456002749  0.701603657878806  0.7032128363461326  1.0000
  O   O1        1.0  0.7891203124915123  0.8115062732738917  0.010179721969727502  1.0000
  O   O2        1.0  0.7109012075923928  0.3115120401812348  0.4898198452578485  1.0000
  O   O3        1.0  0.21087344862655047  0.18848528346316581  0.9898224595714639  1.0000
  O   O4        1.0  0.28914424300086233  0.6884965048145802  0.510190970741377  1.0000
  O   O5        1.0  0.05417113362810969  0.6944559680923205  0.9319347828782016  1.0000
  O   O6        1.0  0.44582485041003383  0.1944571462445097  0.5680459000520843  1.0000
  O   O7        1.0  0.9458150426395593  0.30554502645058795  0.06806438212012013  1.0000
  O   O8        1.0  0.554184976194918  0.8055381854488033  0.4319409378335949  1.0000
  O   O9        1.0  0.29524805224674117  0.9428338870151834  0.10384889589748522  1.0000
  O   O10       1.0  0.20475004949786071  0.4428543058517461  0.39614998220448433  1.0000
  O   O11       1.0  0.7047109672495752  0.0571472880843089  0.8961542590900253  1.0000
  O   O12       1.0  0.7952935731946266  0.5571315882800789  0.6038584465915309  1.0000
  O   O13       1.0  0.749013986240186  0.0799515382234688  0.10170499155212553  1.0000
  O   O14       1.0  0.7509975622063507  0.5799629367545336  0.39829835365950583  1.0000
  O   O15       1.0  0.2509796505137487  0.9200485126129648  0.8983001590340011  1.0000
  O   O16       1.0  0.2490406518676735  0.4200569335133721  0.6017011325881187  1.0000
  F   F1        1.0  0.765425496774256  0.5991183898303375  0.12619344735384896  1.0000
  F   F2        1.0  0.7345926222822355  0.0991212950303506  0.3737952633320988  1.0000
  F   F3        1.0  0.23457063956818297  0.40088637976128183  0.8737980577202508  1.0000
  F   F4        1.0  0.26544991913331717  0.900891968606672  0.6261929644517253  1.0000
  F   F5        1.0  0.4250118656906636  0.4113251778966004  0.1504864090241043  1.0000
  F   F6        1.0  0.07499789909783769  0.9113219704563422  0.3495033458671061  1.0000
  F   F7        1.0  0.5749747086439783  0.588672041389451  0.8495032551371793  1.0000
  F   F8        1.0  0.9250214646388031  0.0886818553346203  0.6504859267369341  1.0000
