data_image0
_chemical_formula_structural       Zn2H22C40N2O8F4
_chemical_formula_sum              "Zn2 H22 C40 N2 O8 F4"
_cell_length_a       11.11996473800486
_cell_length_b       16.29279900338441
_cell_length_c       17.674322294287403
_cell_angle_alpha    95.61186794288422
_cell_angle_beta     90.29613198608682
_cell_angle_gamma    92.18865823533258

_space_group_name_H-M_alt    "P 1"
_space_group_IT_number       1

loop_
  _space_group_symop_operation_xyz
  'x, y, z'

loop_
  _atom_site_type_symbol
  _atom_site_label
  _atom_site_symmetry_multiplicity
  _atom_site_fract_x
  _atom_site_fract_y
  _atom_site_fract_z
  _atom_site_occupancy
  Zn  Zn1       1.0  0.4948587490888415  0.4126980543904608  0.4974443938888342  1.0000
  Zn  Zn2       1.0  0.5041716904529139  0.5860598439021416  0.5057107397583708  1.0000
  H   H1        1.0  0.3785714914078255  0.713106465425092  0.4262284150246174  1.0000
  H   H2        1.0  0.3814473120268786  0.8654140905347204  0.4278859417989977  1.0000
  H   H3        1.0  0.6640899071298207  0.8762004010263597  0.5987182050883818  1.0000
  H   H4        1.0  0.6477440187639658  0.7216788612527195  0.589664605319527  1.0000
  H   H5        1.0  0.3359635657439953  0.12305060111228272  0.4017811278260339  1.0000
  H   H6        1.0  0.6200018949840995  0.13344735271019195  0.5716255189965409  1.0000
  H   H7        1.0  0.6238717813497487  0.2863033776148852  0.5728023797484738  1.0000
  H   H8        1.0  0.35135412685664136  0.2777059805054662  0.41175841485082293  1.0000
  H   H9        1.0  0.600679552980303  0.0030044440859384996  0.5608155021242709  1.0000
  H   H10       1.0  0.3996880491088959  0.9962339970036279  0.4393145879811939  1.0000
  H   H11       1.0  0.5066946047032133  0.6196596545799551  0.2636912141390724  1.0000
  H   H12       1.0  0.5070651550368126  0.6121635428352121  0.12320934889051928  1.0000
  H   H13       1.0  0.4908932063677439  0.3461715721357804  0.1123456748748666  1.0000
  H   H14       1.0  0.49067316006452444  0.3554798081588615  0.2541210117675092  1.0000
  H   H15       1.0  0.5093100033096222  0.6540672375930825  0.8907175255122439  1.0000
  H   H16       1.0  0.49330363762768314  0.38794675828794567  0.8778956006661573  1.0000
  H   H17       1.0  0.49338372179437323  0.38180725485219114  0.7372118869852073  1.0000
  H   H18       1.0  0.5093063551889259  0.6459396806022397  0.7488785336847528  1.0000
  H   H19       1.0  0.49429814559042745  0.40503509430982376  0.9984454729265765  1.0000
  H   H20       1.0  0.5058547898615301  0.5944823050704214  0.003617358013869393  1.0000
  H   H21       1.0  0.7806664194758638  0.6013654464475735  0.40086175004772423  1.0000
  H   H22       1.0  0.22922382204028932  0.5987479918060856  0.4000994315807134  1.0000
  C   C1        1.0  0.49697711139247513  0.4929529494189211  0.3525500181287384  1.0000
  C   C2        1.0  0.26333592554212976  0.4963503203570667  0.5008463384314794  1.0000
  C   C3        1.0  0.5026391026197389  0.5096178784499727  0.6498149287703114  1.0000
  C   C4        1.0  0.7356775586907675  0.4976549712813422  0.5013523644251237  1.0000
  C   C5        1.0  0.43997509024907094  0.7519738618664036  0.46378289218129254  1.0000
  C   C6        1.0  0.4426483060306552  0.8371870685619455  0.46510298207714124  1.0000
  C   C7        1.0  0.523783535211507  0.8851799721669663  0.5142361824587027  1.0000
  C   C8        1.0  0.5991161812649608  0.8424661094184457  0.5597519378528161  1.0000
  C   C9        1.0  0.5908726819124581  0.7568494857055371  0.5552874555528788  1.0000
  C   C10       1.0  0.5331890620978187  0.9749858437794358  0.5199899262324266  1.0000
  C   C11       1.0  0.4672481161370214  0.024179163450028796  0.48013847122157227  1.0000
  C   C12       1.0  0.40109675209221507  0.156745675123183  0.4406611931828692  1.0000
  C   C13       1.0  0.4767983899494226  0.11399930367626608  0.4859158666952297  1.0000
  C   C14       1.0  0.558484114417155  0.16187874857639167  0.5347598791778481  1.0000
  C   C15       1.0  0.5614479616152862  0.24712367892905007  0.5361535788816809  1.0000
  C   C16       1.0  0.4089911341412601  0.24237555869158459  0.4455152643334089  1.0000
  C   C17       1.0  0.49773056831246987  0.48801601813061507  0.2676417674398053  1.0000
  C   C18       1.0  0.5027674955247505  0.560008935116322  0.22983439873605957  1.0000
  C   C19       1.0  0.5031000989729292  0.5552801262931838  0.1510368704361511  1.0000
  C   C20       1.0  0.4985002410623308  0.47814614331292665  0.1068256801433378  1.0000
  C   C21       1.0  0.4940651788714092  0.40639121764510827  0.1455632797211805  1.0000
  C   C22       1.0  0.4937183717083399  0.4110556600146039  0.2244683370149119  1.0000
  C   C23       1.0  0.49816307216307365  0.46898766270694375  0.02408707353244209  1.0000
  C   C24       1.0  0.5020371255031436  0.530573803087364  0.9778846476737684  1.0000
  C   C25       1.0  0.5061309071385268  0.5941032378757924  0.857076283602197  1.0000
  C   C26       1.0  0.501762467803438  0.5219139737688465  0.8951810594210271  1.0000
  C   C27       1.0  0.4971650511517751  0.44509640960254165  0.850466669407382  1.0000
  C   C28       1.0  0.497331006208789  0.44107542187858667  0.7717019970821468  1.0000
  C   C29       1.0  0.502202736078985  0.5135215116523283  0.7346091978940876  1.0000
  C   C30       1.0  0.506301589233459  0.5901523317087224  0.778245859761789  1.0000
  C   C31       1.0  0.8710241186691261  0.4991315960881265  0.4992012629498531  1.0000
  C   C32       1.0  0.9375215101276595  0.5493935986066915  0.4506768483693833  1.0000
  C   C33       1.0  0.9337726705126672  0.45134588165624473  0.5448293764830651  1.0000
  C   C34       1.0  0.8783565272748673  0.5994190996846882  0.4016569477270693  1.0000
  C   C35       1.0  0.9442045948152966  0.647342692904445  0.356139694968121  1.0000
  C   C36       1.0  0.128156303598729  0.49821661483917973  0.4988769786722997  1.0000
  C   C37       1.0  0.0605836295008402  0.45088568538209023  0.544765852600321  1.0000
  C   C38       1.0  0.0668762826164127  0.5488039776180216  0.45055098929154974  1.0000
  C   C39       1.0  0.13144671457571633  0.5982696174688088  0.4013835487658284  1.0000
  C   C40       1.0  0.07101171410840829  0.646858229154894  0.3561826849012917  1.0000
  N   N1        1.0  0.5124243921805984  0.7122656730809851  0.5082031188865983  1.0000
  N   N2        1.0  0.4879165124539214  0.28675478890153266  0.4923577632547094  1.0000
  O   O1        1.0  0.4933270383265124  0.4250941821007287  0.3828193606754411  1.0000
  O   O2        1.0  0.5002005588830087  0.5648942012369531  0.3888486688903612  1.0000
  O   O3        1.0  0.3196452490768564  0.5661862036342882  0.507848662850698  1.0000
  O   O4        1.0  0.3090309722032032  0.4260016589340124  0.4946649410202113  1.0000
  O   O5        1.0  0.507244391112316  0.5781387744878475  0.6205542742318357  1.0000
  O   O6        1.0  0.49823657452979125  0.4381581218591676  0.6129137188201668  1.0000
  O   O7        1.0  0.6817956110767867  0.4273779175866253  0.49599788337091166  1.0000
  O   O8        1.0  0.687401710951768  0.5675334325855913  0.5074567405158916  1.0000
  F   F1        1.0  0.11324438887570662  0.4037965446067559  0.5935072883517948  1.0000
  F   F2        1.0  0.8761987571161994  0.40438566553491023  0.5936479968589836  1.0000
  F   F3        1.0  0.8885482178977356  0.696563117065942  0.3101004467791029  1.0000
  F   F4        1.0  0.13277947309043006  0.6960371692779075  0.3105130757381929  1.0000
