data_image0
_chemical_formula_structural       Zn4H36C36N4O20
_chemical_formula_sum              "Zn4 H36 C36 N4 O20"
_cell_length_a       6.026543595023938
_cell_length_b       9.27547403400281
_cell_length_c       17.825410581071523
_cell_angle_alpha    89.99991102128912
_cell_angle_beta     89.99968335278183
_cell_angle_gamma    89.99997607416047

_space_group_name_H-M_alt    "P 1"
_space_group_IT_number       1

loop_
  _space_group_symop_operation_xyz
  'x, y, z'

loop_
  _atom_site_type_symbol
  _atom_site_label
  _atom_site_symmetry_multiplicity
  _atom_site_fract_x
  _atom_site_fract_y
  _atom_site_fract_z
  _atom_site_occupancy
  Zn  Zn1       1.0  0.5532156342226955  0.24817416635011114  0.4403179879120601  1.0000
  Zn  Zn2       1.0  0.9467819676807495  0.7518241487112007  0.9403188062712006  1.0000
  Zn  Zn3       1.0  0.4467760598396495  0.7481750957089731  0.0596809423589235  1.0000
  Zn  Zn4       1.0  0.053219951188396  0.25182560038773966  0.5596812105852964  1.0000
  H   H1        1.0  0.6266351754955651  0.1255444943574133  0.32068874316785684  1.0000
  H   H2        1.0  0.8733660057858686  0.8744563515196262  0.8206890459732465  1.0000
  H   H3        1.0  0.37334997436465045  0.6255396748686762  0.17931196432369492  1.0000
  H   H4        1.0  0.12664245726740123  0.37445849040879153  0.67931143765027  1.0000
  H   H5        1.0  0.4870293694456579  0.45496811366815126  0.3149519951467213  1.0000
  H   H6        1.0  0.012965863145375102  0.5450317831084207  0.8149509926727989  1.0000
  H   H7        1.0  0.5129505523090997  0.9549643233247804  0.185047898242729  1.0000
  H   H8        1.0  0.9870494873613681  0.045035869169382195  0.6850475000663466  1.0000
  H   H9        1.0  0.4978101106235329  0.7209696511392136  0.2898231487546213  1.0000
  H   H10       1.0  0.0021871846008779004  0.27902924620816794  0.789823493161535  1.0000
  H   H11       1.0  0.5021749667797053  0.22096621941363992  0.21017748541736844  1.0000
  H   H12       1.0  0.9978313068554813  0.779034972502643  0.7101781857654432  1.0000
  H   H13       1.0  0.5875743981732954  0.7877593877792463  0.5266776100577815  1.0000
  H   H14       1.0  0.9124364799695144  0.212239144389514  0.026677257955150007  1.0000
  H   H15       1.0  0.41243910869459205  0.2877648550170306  0.9733218181787252  1.0000
  H   H16       1.0  0.0875685159738921  0.7122356239677073  0.47332338290593884  1.0000
  H   H17       1.0  0.5862983520347527  0.5180577834028953  0.5424905343812443  1.0000
  H   H18       1.0  0.9137139316198957  0.48194177736002064  0.0424922166140931  1.0000
  H   H19       1.0  0.4137054036763105  0.018062221763180696  0.9575074180971441  1.0000
  H   H20       1.0  0.0862991561765227  0.9819383067439916  0.4575070950218035  1.0000
  H   H21       1.0  0.9664836723599992  0.15381045720864966  0.2825041553512905  1.0000
  H   H22       1.0  0.5335181217678625  0.8461948206797844  0.7825062483736432  1.0000
  H   H23       1.0  0.0335014560390832  0.6538142185280619  0.2174959694221812  1.0000
  H   H24       1.0  0.4664903627346746  0.3461870615203608  0.7174959399588448  1.0000
  H   H25       1.0  0.8599652708396948  0.39559550572189295  0.2253784108924251  1.0000
  H   H26       1.0  0.6400341215215448  0.60441210727042  0.7253782430677662  1.0000
  H   H27       1.0  0.14003460790912212  0.8956001426200189  0.27462096709633244  1.0000
  H   H28       1.0  0.3599629313092906  0.10440095855345531  0.7746213260640716  1.0000
  H   H29       1.0  0.13890657898416242  0.3882525111907782  0.2596571318822356  1.0000
  H   H30       1.0  0.3610912004138243  0.6117540274008986  0.7596559768918071  1.0000
  H   H31       1.0  0.8610634374789612  0.8882549390642396  0.24034169078080228  1.0000
  H   H32       1.0  0.6389307367384447  0.11174723651305378  0.7403424645797971  1.0000
  H   H33       1.0  0.9285195937676108  0.47916952765351783  0.3120775788203645  1.0000
  H   H34       1.0  0.5714800664115387  0.5208345795266779  0.8120759226331487  1.0000
  H   H35       1.0  0.07147358425678621  0.9791712169271489  0.18791724698736093  1.0000
  H   H36       1.0  0.4285236872173853  0.020829077624441104  0.6879192227310471  1.0000
  C   C1        1.0  0.5090150439703578  0.5320260963468398  0.3603938151743194  1.0000
  C   C2        1.0  0.9909788627400715  0.4679757033156378  0.8603942065493443  1.0000
  C   C3        1.0  0.4909651989291391  0.0320228880875533  0.13960584218154543  1.0000
  C   C4        1.0  0.0090361665998344  0.9679743234042844  0.6396073272082817  1.0000
  C   C5        1.0  0.5154897879607462  0.679488122308271  0.3466577433746424  1.0000
  C   C6        1.0  0.9845142951779097  0.3205115641419455  0.8466571383653517  1.0000
  C   C7        1.0  0.4845119142022939  0.1794870286965846  0.1533423616557172  1.0000
  C   C8        1.0  0.015489230872802302  0.8205101397859025  0.6533417037215514  1.0000
  C   C9        1.0  0.5466630263468417  0.7743036641341944  0.4066815401505438  1.0000
  C   C10       1.0  0.953338434087705  0.22569583436635554  0.9066805062997361  1.0000
  C   C11       1.0  0.45332864786702504  0.27430276539765697  0.093318492038577  1.0000
  C   C12       1.0  0.046675119903987615  0.7256924348087069  0.5933195306230205  1.0000
  C   C13       1.0  0.5673094626624859  0.716479011143626  0.47871522712163295  1.0000
  C   C14       1.0  0.9326991382581441  0.2835170274623949  0.9787147491097415  1.0000
  C   C15       1.0  0.4326938707427673  0.2164804987728458  0.021284288487656507  1.0000
  C   C16       1.0  0.0673127125017956  0.7835192394398333  0.5212852433860677  1.0000
  C   C17       1.0  0.5640969927029859  0.5674052148997575  0.48763401609439694  1.0000
  C   C18       1.0  0.935911465058176  0.4325918738887253  0.9876351004221464  1.0000
  C   C19       1.0  0.4359081132254375  0.06740457351911291  0.012365053056690603  1.0000
  C   C20       1.0  0.06408865721733291  0.9325973488473807  0.5123658995369881  1.0000
  C   C21       1.0  0.5606462201792581  0.9344162565915821  0.3923407016955522  1.0000
  C   C22       1.0  0.9393504924377113  0.06558328681251882  0.8923409394649513  1.0000
  C   C23       1.0  0.4393453324564192  0.4344153160549026  0.10765976846947473  1.0000
  C   C24       1.0  0.06065986445251071  0.5655819954670349  0.6076620254656079  1.0000
  C   C25       1.0  0.0334089596359561  0.23896938117507457  0.390826217743026  1.0000
  C   C26       1.0  0.46659501111916063  0.7610324342400857  0.8908264303464153  1.0000
  C   C27       1.0  0.9665794227634449  0.7389592589968146  0.10917328060466502  1.0000
  C   C28       1.0  0.5334135380709029  0.2610336242984985  0.6091724574349798  1.0000
  C   C29       1.0  0.9071724209645567  0.24554804041306966  0.3162554327577425  1.0000
  C   C30       1.0  0.5928288314701433  0.7544549755697788  0.8162558004463776  1.0000
  C   C31       1.0  0.09281595644008428  0.7455486599097583  0.1837434995342733  1.0000
  C   C32       1.0  0.40717806338589924  0.2544505696021488  0.683743653389371  1.0000
  C   C33       1.0  0.9634586866946223  0.38610048274841086  0.2758153030024673  1.0000
  C   C34       1.0  0.5365398961589706  0.6139037379770756  0.7758147637672794  1.0000
  C   C35       1.0  0.036524605998764115  0.8861085348999467  0.22418464329307142  1.0000
  C   C36       1.0  0.4634704240717582  0.11389380231580759  0.7241847980586587  1.0000
  N   N1        1.0  0.5369376459850201  0.47631562456773935  0.4296438278160083  1.0000
  N   N2        1.0  0.9630617865634009  0.5236827239168065  0.9296447904976404  1.0000
  N   N3        1.0  0.4630505561896002  0.9763132825505988  0.0703560491628323  1.0000
  N   N4        1.0  0.0369502614750559  0.0236863020057285  0.5703570846295848  1.0000
  O   O1        1.0  0.567834956282887  0.9725416384129346  0.3237189789358227  1.0000
  O   O2        1.0  0.9321678356901942  0.0274570417514539  0.8237192596685079  1.0000
  O   O3        1.0  0.4321582267260382  0.47253940648673864  0.17628202293173706  1.0000
  O   O4        1.0  0.0678359128400103  0.5274587682737176  0.6762842955580411  1.0000
  O   O5        1.0  0.5671954730040057  0.0178667844949842  0.4489832211427256  1.0000
  O   O6        1.0  0.932808627136801  0.9821304253224101  0.9489827671420488  1.0000
  O   O7        1.0  0.4328013738858871  0.5178688221985865  0.051018691062090206  1.0000
  O   O8        1.0  0.06719311685514381  0.4821340572482313  0.5510176337568353  1.0000
  O   O9        1.0  0.9201323252995195  0.24971904193100164  0.4519375670183551  1.0000
  O   O10       1.0  0.5798667494386508  0.7502803148587985  0.9519379625693745  1.0000
  O   O11       1.0  0.0798626862190872  0.7497200891580462  0.04806416704690972  1.0000
  O   O12       1.0  0.42013351127355497  0.2502784870927002  0.5480626164730469  1.0000
  O   O13       1.0  0.6728921191250734  0.23357238263214697  0.3261780122926227  1.0000
  O   O14       1.0  0.8271073147218218  0.7664284460555633  0.8261790470953232  1.0000
  O   O15       1.0  0.3270995860122738  0.7335697468284722  0.1738226121895607  1.0000
  O   O16       1.0  0.1728945930498114  0.2664284356374367  0.6738220805344499  1.0000
  O   O17       1.0  0.2397146482760917  0.2241302307254144  0.38684519324028344  1.0000
  O   O18       1.0  0.26028772704628983  0.7758694409309469  0.8868457869081399  1.0000
  O   O19       1.0  0.7602704267204246  0.7241330792420443  0.11315599949779202  1.0000
  O   O20       1.0  0.7397208108559425  0.2758694945895073  0.6131558944582951  1.0000
