data_image0
_chemical_formula_structural       Gd2H8C20N4O12
_chemical_formula_sum              "Gd2 H8 C20 N4 O12"
_cell_length_a       7.274767129334363
_cell_length_b       7.48301407318019
_cell_length_c       9.544461398059099
_cell_angle_alpha    92.42933827072
_cell_angle_beta     101.50988463718882
_cell_angle_gamma    98.04731043883862

_space_group_name_H-M_alt    "P 1"
_space_group_IT_number       1

loop_
  _space_group_symop_operation_xyz
  'x, y, z'

loop_
  _atom_site_type_symbol
  _atom_site_label
  _atom_site_symmetry_multiplicity
  _atom_site_fract_x
  _atom_site_fract_y
  _atom_site_fract_z
  _atom_site_occupancy
  Gd  Gd1       1.0  0.6388592790097719  0.18908795996691197  0.9147600850281847  1.0000
  Gd  Gd2       1.0  0.36114451185997615  0.8109074306976252  0.08523732574707309  1.0000
  H   H1        1.0  0.8254886880285639  0.6421494911250036  0.9015362727617742  1.0000
  H   H2        1.0  0.17452305614595795  0.3578512860943164  0.0984677192674184  1.0000
  H   H3        1.0  0.6268155671948676  0.12433620720616288  0.529316836898232  1.0000
  H   H4        1.0  0.37318825652721443  0.8756673353189014  0.4706902734500389  1.0000
  H   H5        1.0  0.7977406162537264  0.7502685005835161  0.37862659446047087  1.0000
  H   H6        1.0  0.2022473736631625  0.24972428810257694  0.6213746989891789  1.0000
  H   H7        1.0  0.8658547047497579  0.8299035953804507  0.6922321662852936  1.0000
  H   H8        1.0  0.1341609700996003  0.17010393452887482  0.30777366992088406  1.0000
  C   C1        1.0  0.8044577052596154  0.588505750781614  0.7913036161573359  1.0000
  C   C2        1.0  0.19555572627033507  0.4114963881499065  0.20870695434216197  1.0000
  C   C3        1.0  0.779589077908568  0.5807000075786705  0.5564499871376822  1.0000
  C   C4        1.0  0.2203996410765897  0.4193062933926726  0.4435413749182472  1.0000
  C   C5        1.0  0.7322284512066305  0.4046706256961911  0.600583434872263  1.0000
  C   C6        1.0  0.267772486320915  0.5953329107815577  0.39941486958414163  1.0000
  C   C7        1.0  0.671560287992115  0.2590614469194321  0.49859290033716513  1.0000
  C   C8        1.0  0.3284324140762466  0.7409258970835921  0.5014089078167601  1.0000
  C   C9        1.0  0.655814572755098  0.2892660440715176  0.352889846851582  1.0000
  C   C10       1.0  0.3441801108742126  0.7107416139182873  0.647116055648709  1.0000
  C   C11       1.0  0.7039848657762207  0.4678302341449124  0.310403530935396  1.0000
  C   C12       1.0  0.29601297415095473  0.5321800894575048  0.6895934916777904  1.0000
  C   C13       1.0  0.7659935990961201  0.6143669206012418  0.4128347243579924  1.0000
  C   C14       1.0  0.2339933218330117  0.3856285521559074  0.5871549740942186  1.0000
  C   C15       1.0  0.6950888784771648  0.518137002419401  0.15845181079289716  1.0000
  C   C16       1.0  0.30491026264483884  0.4818638494458582  0.8415513815145701  1.0000
  C   C17       1.0  0.5660187089331573  0.1278091342599481  0.25316860506957534  1.0000
  C   C18       1.0  0.4339750688173539  0.8721849646445962  0.7468293894877149  1.0000
  C   C19       1.0  0.012859438173847998  0.00024549312681899975  0.9215199091937832  1.0000
  C   C20       1.0  0.9871436111712626  0.9997539623208525  0.07847647709039764  1.0000
  N   N1        1.0  0.748549600669051  0.414584208748991  0.7490976736706684  1.0000
  N   N2        1.0  0.2514626320217985  0.5854192858474078  0.25091066940725426  1.0000
  N   N3        1.0  0.8257424902205842  0.6926695812645534  0.680790348019805  1.0000
  N   N4        1.0  0.1742569471626751  0.3073326430539538  0.3192202666757638  1.0000
  O   O1        1.0  0.8866932189945158  0.06032960997445969  0.8309663132989229  1.0000
  O   O2        1.0  0.1133116787592456  0.9396725438504133  0.16903043199793893  1.0000
  O   O3        1.0  0.6171195711478461  0.6548283117362672  0.12197227565245329  1.0000
  O   O4        1.0  0.38289072992940026  0.345172462459395  0.8780273134308061  1.0000
  O   O5        1.0  0.77478777185587  0.4309852938524513  0.07595856270425831  1.0000
  O   O6        1.0  0.2252047463022961  0.5690182878010148  0.9240374596497531  1.0000
  O   O7        1.0  0.49774906531578716  0.14124327676817924  0.11802653381161582  1.0000
  O   O8        1.0  0.5022484284027727  0.8587480807949461  0.8819677260617667  1.0000
  O   O9        1.0  0.5435847444293457  0.9735274609643978  0.3033538195835348  1.0000
  O   O10       1.0  0.4564079992414917  0.026459894050397295  0.6966521860613851  1.0000
  O   O11       1.0  0.8458994247147162  0.0633680954000369  0.10529882800593537  1.0000
  O   O12       1.0  0.15409404637391333  0.9366246282983041  0.8946906947904976  1.0000
