data_image0
_chemical_formula_structural       Cd2H56C40N20O12
_chemical_formula_sum              "Cd2 H56 C40 N20 O12"
_cell_length_a       8.131928102063812
_cell_length_b       9.03875404034224
_cell_length_c       17.65721631506245
_cell_angle_alpha    89.99981079319171
_cell_angle_beta     89.99984449196718
_cell_angle_gamma    110.85489306302617

_space_group_name_H-M_alt    "P 1"
_space_group_IT_number       1

loop_
  _space_group_symop_operation_xyz
  'x, y, z'

loop_
  _atom_site_type_symbol
  _atom_site_label
  _atom_site_symmetry_multiplicity
  _atom_site_fract_x
  _atom_site_fract_y
  _atom_site_fract_z
  _atom_site_occupancy
  Cd  Cd1       1.0  0.9999993042397931  0.5000005573620214  0.49999962417628285  1.0000
  Cd  Cd2       1.0  0.9999982571911588  0.9999965500399524  2.4958107687e-06  1.0000
  H   H1        1.0  0.683999580657044  0.5947863292127025  0.6015083806787657  1.0000
  H   H2        1.0  0.315995732945602  0.9052134863188357  0.101511075791791  1.0000
  H   H3        1.0  0.31599840821395725  0.40522320000865614  0.3984903594329552  1.0000
  H   H4        1.0  0.6840016644640415  0.0947759147024598  0.8984893633593456  1.0000
  H   H5        1.0  0.17394288496449659  0.6010902673826094  0.683288855254382  1.0000
  H   H6        1.0  0.8260508760378045  0.8989099504952448  0.1832948883885379  1.0000
  H   H7        1.0  0.8260551039147329  0.39891926184687776  0.3167081858352815  1.0000
  H   H8        1.0  0.1739478122993319  0.1010889223607947  0.816710081479286  1.0000
  H   H9        1.0  0.011513353103730084  0.7261265487025881  0.7941404126212958  1.0000
  H   H10       1.0  0.9884868890546484  0.773876159728921  0.2941470203265979  1.0000
  H   H11       1.0  0.9884842823593162  0.27387587648444617  0.20585832749664223  1.0000
  H   H12       1.0  0.011520875305322366  0.22612389504438107  0.7058590822159374  1.0000
  H   H13       1.0  0.30819936915043666  0.8521862059297475  0.9297254792088836  1.0000
  H   H14       1.0  0.6917976853256462  0.6478104706939901  0.42972190979943997  1.0000
  H   H15       1.0  0.6917979128882054  0.14780911520671938  0.0702766589593864  1.0000
  H   H16       1.0  0.3082059214772954  0.35218840105832777  0.5702762639770853  1.0000
  H   H17       1.0  0.762697462575872  0.6107945354620837  0.9535955263968389  1.0000
  H   H18       1.0  0.23729830787859638  0.889205465239442  0.45359664779874714  1.0000
  H   H19       1.0  0.2372987665804587  0.3892043379972563  0.04640208104360968  1.0000
  H   H20       1.0  0.7627036005344223  0.11079222287506238  0.546403791342577  1.0000
  H   H21       1.0  0.9130656427246037  0.4010986633957997  0.896919065363029  1.0000
  H   H22       1.0  0.08692847380128649  0.0989040197476356  0.3969236963704361  1.0000
  H   H23       1.0  0.08692888805276054  0.5988990264365553  0.1030785420794729  1.0000
  H   H24       1.0  0.9130756017614275  0.9010960359048922  0.6030767427675343  1.0000
  H   H25       1.0  0.21273545613932046  0.43909248043457444  0.845005285291222  1.0000
  H   H26       1.0  0.787264081433399  0.0609106978930924  0.3450062740963985  1.0000
  H   H27       1.0  0.7872622946782855  0.5609040246210527  0.1549951538536973  1.0000
  H   H28       1.0  0.21273970205981377  0.9390917258628589  0.6549947313804478  1.0000
  H   H29       1.0  0.3459518017323829  0.5132164467842059  0.9265429071141966  1.0000
  H   H30       1.0  0.654042532255488  0.9867826289231515  0.4265427769684037  1.0000
  H   H31       1.0  0.6540476474614395  0.48678124189569155  0.07345809836935048  1.0000
  H   H32       1.0  0.34595767777857134  0.013213875564367998  0.573457662174981  1.0000
  H   H33       1.0  0.49865584846367017  0.7681470018508916  0.8652214924507218  1.0000
  H   H34       1.0  0.5013464568592951  0.7318526584040581  0.3652191516967349  1.0000
  H   H35       1.0  0.501340088609453  0.23185423969832894  0.1347795130320222  1.0000
  H   H36       1.0  0.49865990122959397  0.26814384467673597  0.6347784557393792  1.0000
  H   H37       1.0  0.3546800021834642  0.7160814209046293  0.786232958153839  1.0000
  H   H38       1.0  0.6453238900363872  0.7839272824384408  0.2862303496802737  1.0000
  H   H39       1.0  0.6453137677372212  0.28391745310386085  0.21376861367294  1.0000
  H   H40       1.0  0.3546857494503826  0.21607750802232317  0.7137666914061143  1.0000
  H   H41       1.0  0.6089000305089767  0.5484801865286784  0.8322600147729489  1.0000
  H   H42       1.0  0.39110200977179943  0.9515245250343369  0.3322619715686557  1.0000
  H   H43       1.0  0.39110053294400154  0.4515234220039942  0.16773815900147326  1.0000
  H   H44       1.0  0.6088998986439549  0.04847316308287469  0.6677379012319803  1.0000
  H   H45       1.0  0.47113051695280456  0.5044396496011458  0.7510293270506379  1.0000
  H   H46       1.0  0.5288678600992184  0.9955670235951855  0.2510293384133887  1.0000
  H   H47       1.0  0.5288680560517135  0.4955651434079582  0.24896941306472087  1.0000
  H   H48       1.0  0.4711325266442969  0.0044330329149105  0.7489699680455216  1.0000
  H   H49       1.0  0.6201369991918568  0.7752131846767012  0.7007453149512413  1.0000
  H   H50       1.0  0.3798633863444748  0.724791600843183  0.20074710222563397  1.0000
  H   H51       1.0  0.3798581770547429  0.22478924107843307  0.2992534251682314  1.0000
  H   H52       1.0  0.6201402204502457  0.27520727090101355  0.7992527705729415  1.0000
  H   H53       1.0  0.7571752696396173  0.8280937753643938  0.7827009117460546  1.0000
  H   H54       1.0  0.24282970964875258  0.6719114094139441  0.2827046584619026  1.0000
  H   H55       1.0  0.24281932247620835  0.1719133866057021  0.21729726202910624  1.0000
  H   H56       1.0  0.7571791076428838  0.32808509308521394  0.7172957806761103  1.0000
  C   C1        1.0  0.7973058613802309  0.6114297906983025  0.637430152904855  1.0000
  C   C2        1.0  0.20268957322598874  0.8885708653316938  0.13743188494182587  1.0000
  C   C3        1.0  0.2026941179337456  0.38857855404121716  0.3625691535473123  1.0000
  C   C4        1.0  0.79730923049312  0.11142208742000288  0.8625691205461263  1.0000
  C   C5        1.0  0.04782203699878103  0.6168656750541786  0.6834027551715635  1.0000
  C   C6        1.0  0.9521786317800718  0.883133356120055  0.1834086574237972  1.0000
  C   C7        1.0  0.952179932771884  0.38314148521702407  0.3165942859176099  1.0000
  C   C8        1.0  0.047827257505183185  0.11686196301722156  0.8165957461018465  1.0000
  C   C9        1.0  0.970414710351342  0.6792004747599734  0.738034747054314  1.0000
  C   C10       1.0  0.029582854957311625  0.8208039548372029  0.23803624335540965  1.0000
  C   C11       1.0  0.029582809740702452  0.32080787054223237  0.2619656920807572  1.0000
  C   C12       1.0  0.9704224502163683  0.1791961005339857  0.7619636294411122  1.0000
  C   C13       1.0  0.18075970774606268  0.7578741679940746  0.9300909281423699  1.0000
  C   C14       1.0  0.8192361135743197  0.7421225054106628  0.430089305714361  1.0000
  C   C15       1.0  0.8192371055273284  0.24211996923676782  0.06991007734581699  1.0000
  C   C16       1.0  0.18076673238838484  0.2578775505340404  0.5699094344023194  1.0000
  C   C17       1.0  0.8985168190935724  0.6294174483570243  0.9402071320485204  1.0000
  C   C18       1.0  0.10147832013763036  0.8705838645308502  0.4402090208548016  1.0000
  C   C19       1.0  0.10147941006275829  0.37058142510231556  0.059790475391920894  1.0000
  C   C20       1.0  0.8985249945875823  0.12941737531676273  0.55979141828265  1.0000
  C   C21       1.0  0.9712207754762119  0.5250188289598016  0.911790464516045  1.0000
  C   C22       1.0  0.028774930926090375  0.9749803874815655  0.4117939668931853  1.0000
  C   C23       1.0  0.028775276973398437  0.4749764924796693  0.0882077092681968  1.0000
  C   C24       1.0  0.9712308430073547  0.025020851789825795  0.5882081712647886  1.0000
  C   C25       1.0  0.28275482719467243  0.5465365591297838  0.8776971669680691  1.0000
  C   C26       1.0  0.7172450748264084  0.9534665344334812  0.3776964478014405  1.0000
  C   C27       1.0  0.7172450907671432  0.453462313458452  0.1223044048548729  1.0000
  C   C28       1.0  0.2827594695015563  0.04653470512467089  0.62230512401662  1.0000
  C   C29       1.0  0.4207608540963576  0.6684660051623651  0.8291904644543067  1.0000
  C   C30       1.0  0.5792412159184651  0.8315387357623792  0.3291889908073244  1.0000
  C   C31       1.0  0.5792353750517449  0.3315328682888535  0.17080884200819205  1.0000
  C   C32       1.0  0.4207618067454817  0.168464872196779  0.6708103156469392  1.0000
  C   C33       1.0  0.545077833203777  0.5998247373933194  0.7901367237446166  1.0000
  C   C34       1.0  0.45492262445046083  0.9001815613614991  0.29013698849375646  1.0000
  C   C35       1.0  0.45492073980074105  0.4001800556157917  0.20986201637073515  1.0000
  C   C36       1.0  0.5450797527360292  0.0998173106667508  0.7098628843055932  1.0000
  C   C37       1.0  0.6835233483400955  0.7297402747250175  0.7452987691787667  1.0000
  C   C38       1.0  0.31647783545793834  0.7702640845654115  0.24530225786777748  1.0000
  C   C39       1.0  0.3164720046104818  0.27026570304728637  0.25469997093760094  1.0000
  C   C40       1.0  0.6835280538437659  0.2297312345881082  0.7546987476137517  1.0000
  N   N1        1.0  0.9387462401060348  0.5757487418469792  0.6208629306158497  1.0000
  N   N2        1.0  0.061249646954237784  0.9242497044558889  0.1208659117409425  1.0000
  N   N3        1.0  0.06125373921342706  0.4242596028979476  0.3791352431549412  1.0000
  N   N4        1.0  0.9387462287667174  0.07574206494204819  0.879137359112576  1.0000
  N   N5        1.0  0.812109867411131  0.6750126072771464  0.7080255891747382  1.0000
  N   N6        1.0  0.18788828048668188  0.8249897410985197  0.2080285797230275  1.0000
  N   N7        1.0  0.1878884135238934  0.32499455383538123  0.2919737172794825  1.0000
  N   N8        1.0  0.8121117528324292  0.17500321136100888  0.7919741247862148  1.0000
  N   N9        1.0  0.030726325454985073  0.7744246122103461  0.9511311306837057  1.0000
  N   N10       1.0  0.9692702297097426  0.7255742278699344  0.4511293488190233  1.0000
  N   N11       1.0  0.9692706645251263  0.22557307704036586  0.04886930846069499  1.0000
  N   N12       1.0  0.030732616250219284  0.2744258280720615  0.5488699576383452  1.0000
  N   N13       1.0  0.14968868339972363  0.6081160429945384  0.9054020180962467  1.0000
  N   N14       1.0  0.8503066160932419  0.8918820506225912  0.40540293573547354  1.0000
  N   N15       1.0  0.8503069002681869  0.391878094523058  0.0945984210520265  1.0000
  N   N16       1.0  0.14969576108776286  0.10811682140024459  0.5945980697452455  1.0000
  N   N17       1.0  0.5732099727975708  0.3005743853461382  0.4472057802801855  1.0000
  N   N18       1.0  0.426785470655254  0.19942308058185176  0.9472043624257083  1.0000
  N   N19       1.0  0.42679351863984744  0.6994304065267584  0.5527929598320966  1.0000
  N   N20       1.0  0.5732130409970962  0.800572240275983  0.0527966430604252  1.0000
  O   O1        1.0  0.4456269693971819  0.17121541541941096  0.44610726821416335  1.0000
  O   O2        1.0  0.5543689534605605  0.32878324492064337  0.9461060389695746  1.0000
  O   O3        1.0  0.554384191783761  0.828787006670126  0.5538858084884666  1.0000
  O   O4        1.0  0.4456196059769155  0.671217998346421  0.0538921348143404  1.0000
  O   O5        1.0  0.6007139206560481  0.39696996398692613  0.39226667081192085  1.0000
  O   O6        1.0  0.3992795954567612  0.10302802772569919  0.8922671490707399  1.0000
  O   O7        1.0  0.39929097708535  0.6030383796109645  0.6077337683185461  1.0000
  O   O8        1.0  0.6007248875162929  0.8969637396784619  0.10773725445877598  1.0000
  O   O9        1.0  0.6756808914666337  0.33669025867905583  0.5051004287690402  1.0000
  O   O10       1.0  0.324315435409261  0.16330906658158284  0.005099557504990998  1.0000
  O   O11       1.0  0.32431615985193923  0.6633169027094041  0.49490057670801235  1.0000
  O   O12       1.0  0.6756826074723605  0.8366850703652062  0.9949014479824355  1.0000
