data_image0
_chemical_formula_structural       Al4H10C20Cl2O20
_chemical_formula_sum              "Al4 H10 C20 Cl2 O20"
_cell_length_a       6.6778742771681285
_cell_length_b       11.610550388376181
_cell_length_c       16.00566334391776
_cell_angle_alpha    101.05194975010144
_cell_angle_beta     90.00062728408193
_cell_angle_gamma    90.00048899150933

_space_group_name_H-M_alt    "P 1"
_space_group_IT_number       1

loop_
  _space_group_symop_operation_xyz
  'x, y, z'

loop_
  _atom_site_type_symbol
  _atom_site_label
  _atom_site_symmetry_multiplicity
  _atom_site_fract_x
  _atom_site_fract_y
  _atom_site_fract_z
  _atom_site_occupancy
  Al  Al1       1.0  0.015093891032400103  0.5025075462552664  0.5052361577605496  1.0000
  Al  Al2       1.0  0.98492729493006  0.002523899633907  0.0052467797620181006  1.0000
  Al  Al3       1.0  0.5150298728239805  0.5011944689801453  0.5022041322357537  1.0000
  Al  Al4       1.0  0.48497173567812274  0.0011902465881306003  0.0022076073047899002  1.0000
  H   H1        1.0  0.9576480821712038  0.3071023185557706  0.6855695884977635  1.0000
  H   H2        1.0  0.042359016048230606  0.8070874479609886  0.18557007893610944  1.0000
  H   H3        1.0  0.41509043002881185  0.26823961152827996  0.6867834653833499  1.0000
  H   H4        1.0  0.5849146347977481  0.7682250387161956  0.18677699787054539  1.0000
  H   H5        1.0  0.37450144985125894  0.23797825434021294  0.8208977735529573  1.0000
  H   H6        1.0  0.625474232650582  0.7379684813928268  0.32090742611702444  1.0000
  H   H7        1.0  0.7675650095771759  0.3561403280614003  0.452323093897057  1.0000
  H   H8        1.0  0.23239537475760133  0.8561421320812528  0.9523302925545067  1.0000
  H   H9        1.0  0.265431752412475  0.6429396014258728  0.48381403384967575  1.0000
  H   H10       1.0  0.7345563841298598  0.14294993825217966  0.9838174869910361  1.0000
  C   C1        1.0  0.7683973963844865  0.6327966566874679  0.40197293067099343  1.0000
  C   C2        1.0  0.231607612385119  0.13279676164333407  0.9019656046267457  1.0000
  C   C3        1.0  0.7611142027963497  0.6416805858854532  0.6356302998364856  1.0000
  C   C4        1.0  0.23891592294614838  0.141674429469461  0.13563829086544393  1.0000
  C   C5        1.0  0.2658807980648917  0.3718899626824097  0.604017020974517  1.0000
  C   C6        1.0  0.7341113396432705  0.8718797964306546  0.10401513408835682  1.0000
  C   C7        1.0  0.2625977253905348  0.35682666568321514  0.3714225248617069  1.0000
  C   C8        1.0  0.7374006834713641  0.8568100907420871  0.8714247914269962  1.0000
  C   C9        1.0  0.25581233057368286  0.2809924090405502  0.2883705636763665  1.0000
  C   C10       1.0  0.7442004498974768  0.7809648870884446  0.7883663291285787  1.0000
  C   C11       1.0  0.24536738249672402  0.2186462770423958  0.2183530939891369  1.0000
  C   C12       1.0  0.7546693430978949  0.7186530386941004  0.7183590264876257  1.0000
  C   C13       1.0  0.09758558426949551  0.27578858997944883  0.7087000660415016  1.0000
  C   C14       1.0  0.9024217442573104  0.7757875504597892  0.20870039841697263  1.0000
  C   C15       1.0  0.2687115051771016  0.2995482644926994  0.6707886998014345  1.0000
  C   C16       1.0  0.7313115125292384  0.7995395350603685  0.17078936042825896  1.0000
  C   C17       1.0  0.08024228635577663  0.2102146754146119  0.7774575920414082  1.0000
  C   C18       1.0  0.919751156745633  0.7102101920194954  0.27746871836488657  1.0000
  C   C19       1.0  0.23169538528181732  0.19743540934025108  0.8313971518815251  1.0000
  C   C20       1.0  0.7683039738830717  0.6974335736010389  0.33140444663170854  1.0000
  Cl  Cl1       1.0  0.8438681695777176  0.15051156602627458  0.7832437092688879  1.0000
  Cl  Cl2       1.0  0.1561335527119425  0.6505296338345589  0.28326116479659197  1.0000
  O   O1        1.0  0.5924325503271675  0.6103998926312926  0.6022483703315443  1.0000
  O   O2        1.0  0.40760210740400993  0.1103668814037846  0.1022706160775897  1.0000
  O   O3        1.0  0.935670946927239  0.6072388040964967  0.43200756896501263  1.0000
  O   O4        1.0  0.06431062321433251  0.10722214995624307  0.9319985260728672  1.0000
  O   O5        1.0  0.09394298776557261  0.3849314442324642  0.4063479249437237  1.0000
  O   O6        1.0  0.9060134518627337  0.8849031091569373  0.9063849958800462  1.0000
  O   O7        1.0  0.932961627568311  0.6128925436537075  0.6046835761098707  1.0000
  O   O8        1.0  0.0670521746897776  0.11289649063852637  0.10467573124271469  1.0000
  O   O9        1.0  0.09610808273932041  0.4033890150806698  0.5799938180953887  1.0000
  O   O10       1.0  0.9039017711866819  0.9034202159390932  0.08001057669776658  1.0000
  O   O11       1.0  0.5953769889622437  0.6085967735730691  0.42864728871983004  1.0000
  O   O12       1.0  0.40458952662324793  0.10862372478430872  0.9286628006658548  1.0000
  O   O13       1.0  0.7651342439878591  0.43019360778917815  0.4925472565833503  1.0000
  O   O14       1.0  0.23485239204445923  0.9302037460914578  0.9925457425505899  1.0000
  O   O15       1.0  0.4354569717437471  0.39666086278761264  0.5754584980693311  1.0000
  O   O16       1.0  0.5645646266812748  0.8966438253012756  0.0754455534571576  1.0000
  O   O17       1.0  0.43530605294699853  0.38777377095811266  0.4012601712872198  1.0000
  O   O18       1.0  0.5646847182681968  0.8877656573862682  0.901265581781054  1.0000
  O   O19       1.0  0.2655019798991773  0.5725668384025795  0.5081619769495448  1.0000
  O   O20       1.0  0.7344993596409354  0.0725671294520041  0.0081533930216438  1.0000
