data_image0
_chemical_formula_structural       Hg2H64C68Br4N8
_chemical_formula_sum              "Hg2 H64 C68 Br4 N8"
_cell_length_a       10.43502087536519
_cell_length_b       10.447104464175041
_cell_length_c       16.290541048026437
_cell_angle_alpha    105.80192987371898
_cell_angle_beta     106.16642088249104
_cell_angle_gamma    98.16535468043502

_space_group_name_H-M_alt    "P 1"
_space_group_IT_number       1

loop_
  _space_group_symop_operation_xyz
  'x, y, z'

loop_
  _atom_site_type_symbol
  _atom_site_label
  _atom_site_symmetry_multiplicity
  _atom_site_fract_x
  _atom_site_fract_y
  _atom_site_fract_z
  _atom_site_occupancy
  Hg  Hg1       1.0  0.9753131008316133  0.22512200616431943  0.25000586409544207  1.0000
  Hg  Hg2       1.0  0.024689762734894254  0.7748748433288029  0.7499937004877921  1.0000
  H   H1        1.0  0.18500194843135634  0.3718494521512312  0.5171306559190114  1.0000
  H   H2        1.0  0.8548088926152957  0.16796601953159748  0.9831040590225228  1.0000
  H   H3        1.0  0.8150011520969402  0.6281484209728985  0.4828691303336469  1.0000
  H   H4        1.0  0.14519371111934012  0.8320338882670766  0.01690029480797504  1.0000
  H   H5        1.0  0.09782581858186751  0.4059653173085707  0.4189389480545529  1.0000
  H   H6        1.0  0.9874306915301152  0.17886774464508187  0.08119157792244647  1.0000
  H   H7        1.0  0.902176760934758  0.5940345968291679  0.5810617194807222  1.0000
  H   H8        1.0  0.012566874294783717  0.8211362244131305  0.9188138327182571  1.0000
  H   H9        1.0  0.24332784289846646  0.6213621072711888  0.5365126111593739  1.0000
  H   H10       1.0  0.0851048454874643  0.2064902809784428  0.9635873146011775  1.0000
  H   H11       1.0  0.7566745036927004  0.3786367821790222  0.463488449089013  1.0000
  H   H12       1.0  0.9148997333202973  0.7935137191406268  0.03642240302352207  1.0000
  H   H13       1.0  0.16179917902364588  0.5911120468885328  0.6140693431786417  1.0000
  H   H14       1.0  0.9769253512948953  0.0475580428586895  0.8859697078111779  1.0000
  H   H15       1.0  0.838201927597794  0.408885814795255  0.38593070457903167  1.0000
  H   H16       1.0  0.023079156206783476  0.9524500518750754  0.11403764813974952  1.0000
  H   H17       1.0  0.9810273666213406  0.37223943574832663  0.5668243455937088  1.0000
  H   H18       1.0  0.8052056829944478  0.9143533851761421  0.93317420534202  1.0000
  H   H19       1.0  0.018975733906955776  0.6277584373758032  0.4331754406589424  1.0000
  H   H20       1.0  0.19480315153158054  0.08564757740504089  0.0668314287904508  1.0000
  H   H21       1.0  0.5768257295893379  0.055305738719894706  0.4385298449224848  1.0000
  H   H22       1.0  0.617020664242837  0.6388598831243256  0.06192169492916828  1.0000
  H   H23       1.0  0.423175669154638  0.9446890562062649  0.5614703286482268  1.0000
  H   H24       1.0  0.38297400977796064  0.3611492044514932  0.938071830652852  1.0000
  H   H25       1.0  0.8321463386543047  0.3877751462680833  0.6778534159561644  1.0000
  H   H26       1.0  0.7088152351172143  0.6537017302429645  0.8221199043486536  1.0000
  H   H27       1.0  0.1678452521747289  0.6122247107585821  0.3221453107527665  1.0000
  H   H28       1.0  0.29118196593111634  0.3463053245900696  0.177874321593336  1.0000
  H   H29       1.0  0.9278609318301039  0.2095177793096781  0.6199437005589771  1.0000
  H   H30       1.0  0.5890047122135159  0.8073731319276617  0.880109304942046  1.0000
  H   H31       1.0  0.07213788472559199  0.7904831387479164  0.38005586850814416  1.0000
  H   H32       1.0  0.41099292374300234  0.1926400563300064  0.11988791772532181  1.0000
  H   H33       1.0  0.8137251455970684  0.04715085315786639  0.5774356093999414  1.0000
  H   H34       1.0  0.46901251433204993  0.7361264541162382  0.9226751454485935  1.0000
  H   H35       1.0  0.18627567293815878  0.9528500742270513  0.42256492692723674  1.0000
  H   H36       1.0  0.5309829378438878  0.2638816107944493  0.0773207924329142  1.0000
  H   H37       1.0  0.9064742581856252  0.9036432373547855  0.2170828106445697  1.0000
  H   H38       1.0  0.6865684451339293  0.18966506923175788  0.2829216920331845  1.0000
  H   H39       1.0  0.09353684218813643  0.0963546751916482  0.7829196158832303  1.0000
  H   H40       1.0  0.3134377155425838  0.8103287269664534  0.7170797564444413  1.0000
  H   H41       1.0  0.38976586592747964  0.17963447902518226  0.42475853640433314  1.0000
  H   H42       1.0  0.755203687130603  0.4656240100839285  0.07549989824187259  1.0000
  H   H43       1.0  0.6102301030503128  0.8203541565167639  0.5752377582472121  1.0000
  H   H44       1.0  0.24478729119901024  0.534381987853578  0.9244942761632232  1.0000
  H   H45       1.0  0.7369322398680397  0.8397176966851634  0.4679659442075561  1.0000
  H   H46       1.0  0.37121052082571293  0.7690560390354193  0.03215005769777689  1.0000
  H   H47       1.0  0.2630713897445959  0.16027813331234597  0.5320341895275575  1.0000
  H   H48       1.0  0.6287868470527871  0.2309428202291741  0.9678525778869727  1.0000
  H   H49       1.0  0.7933314381374004  0.6725454231519237  0.21049962528560676  1.0000
  H   H50       1.0  0.46222393831765646  0.08275455036670817  0.2898290109917312  1.0000
  H   H51       1.0  0.2066771352088281  0.32745452213730886  0.7895021008822098  1.0000
  H   H52       1.0  0.5377791191589055  0.9172474099765467  0.710172714264914  1.0000
  H   H53       1.0  0.7100811839722071  0.6410403118758836  0.33285127907399925  1.0000
  H   H54       1.0  0.30799604569075006  0.8771501816396422  0.16745146812687745  1.0000
  H   H55       1.0  0.28992314441681805  0.35895859218420156  0.6671476765217575  1.0000
  H   H56       1.0  0.6920067909693516  0.12285075084655259  0.8325524929905015  1.0000
  H   H57       1.0  0.644158602633759  0.5106549122071798  0.6651276725157516  1.0000
  H   H58       1.0  0.8448655701179107  0.4788847769413636  0.8348120379045625  1.0000
  H   H59       1.0  0.3558305593802232  0.4893387999545097  0.3348683189728234  1.0000
  H   H60       1.0  0.1551378267427452  0.5211274177802707  0.16518663610846568  1.0000
  H   H61       1.0  0.42320218788703573  0.40739447287325703  0.5370385077879264  1.0000
  H   H62       1.0  0.870309621985051  0.3865213078904118  0.9629752280814472  1.0000
  H   H63       1.0  0.576790479944414  0.5925972170201064  0.4629552885866914  1.0000
  H   H64       1.0  0.12968264340236857  0.6134816295378869  0.03701863419290419  1.0000
  C   C1        1.0  0.10517835160086966  0.4216914306816689  0.4898656094898329  1.0000
  C   C2        1.0  0.9319147782359993  0.1153508131606316  0.010259070347338266  1.0000
  C   C3        1.0  0.8948239828812917  0.5783074619380739  0.5101336076109462  1.0000
  C   C4        1.0  0.06808453646129912  0.8846521458199275  0.9897446283538542  1.0000
  C   C5        1.0  0.9261173901609255  0.20452043869858016  0.44692390808377513  1.0000
  C   C6        1.0  0.7573540524118484  0.9792603538994128  0.053040702223050594  1.0000
  C   C7        1.0  0.07388571440370836  0.7954774333690436  0.5530764925514191  1.0000
  C   C8        1.0  0.24264459445179654  0.020735446968991798  0.9469603924658757  1.0000
  C   C9        1.0  0.14608168016727766  0.5748470224983818  0.5419169723218289  1.0000
  C   C10       1.0  0.0329705897783725  0.1039739467858425  0.9581309697793756  1.0000
  C   C11       1.0  0.8539206583512212  0.4251518690648481  0.45808285916148606  1.0000
  C   C12       1.0  0.9670359708272543  0.8960300679431014  0.041876643192686795  1.0000
  C   C13       1.0  0.9676018200717705  0.355048009424948  0.4947699504431354  1.0000
  C   C14       1.0  0.8601719391319166  0.9729857000476586  0.005259773042723691  1.0000
  C   C15       1.0  0.0324015174183287  0.6449508873301965  0.5052300574789399  1.0000
  C   C16       1.0  0.13982942866932294  0.027013178928086704  0.9947441826795966  1.0000
  C   C17       1.0  0.8836851306953835  0.0020230008331054987  0.34635089322058116  1.0000
  C   C18       1.0  0.6555205595133702  0.0374447868350103  0.15371371204727777  1.0000
  C   C19       1.0  0.11631774094379208  0.9979738465469907  0.653649900127732  1.0000
  C   C20       1.0  0.34448409732520696  0.9625510409588428  0.846290898804348  1.0000
  C   C21       1.0  0.7166246401289628  0.21324442141785477  0.5597223234820775  1.0000
  C   C22       1.0  0.6531159719214799  0.6568883188799148  0.9405045221927039  1.0000
  C   C23       1.0  0.2833739905893466  0.7867513836765881  0.44027631367670494  1.0000
  C   C24       1.0  0.34687799525026014  0.34311769674635423  0.059488952763587094  1.0000
  C   C25       1.0  0.8374262723448851  0.9827626200842445  0.41692086901890235  1.0000
  C   C26       1.0  0.56555725906707  0.9205651257902896  0.08317364686092779  1.0000
  C   C27       1.0  0.16257659929429022  0.0172342272958517  0.5830799243294109  1.0000
  C   C28       1.0  0.4344426318026465  0.07943170178801748  0.9168290747012549  1.0000
  C   C29       1.0  0.5912075829836142  0.1543709184835222  0.4889552077674111  1.0000
  C   C30       1.0  0.6654325441188932  0.6026337333251276  0.011388099886687448  1.0000
  C   C31       1.0  0.40879404464949703  0.8456249021866713  0.5110439587076457  1.0000
  C   C32       1.0  0.3345619521371788  0.3973702391745205  0.9886057225520661  1.0000
  C   C33       1.0  0.7335959940996021  0.34034285640344547  0.6237348707889367  1.0000
  C   C34       1.0  0.7159005631454677  0.6095900548905603  0.8763368998097434  1.0000
  C   C35       1.0  0.2663981156843036  0.6596549699934471  0.37626332751489133  1.0000
  C   C36       1.0  0.2840916511175351  0.3904169718698753  0.12365767270352988  1.0000
  C   C37       1.0  0.8353772215921752  0.14440085222646104  0.5643798968326834  1.0000
  C   C38       1.0  0.5794707662874502  0.7707764520299136  0.9357370457179357  1.0000
  C   C39       1.0  0.1646233640175936  0.8555990504709287  0.4356210322076137  1.0000
  C   C40       1.0  0.42052344995509133  0.229230584057845  0.06425849405539452  1.0000
  C   C41       1.0  0.8695012172990033  0.8903009352666659  0.27117080018884815  1.0000
  C   C42       1.0  0.619055690912987  0.0984645783275866  0.228930754297032  1.0000
  C   C43       1.0  0.1305066532344981  0.10969593701650375  0.7288314897357894  1.0000
  C   C44       1.0  0.3809461938635934  0.9015322606910701  0.7710717057601284  1.0000
  C   C45       1.0  0.4859990378689859  0.22380258880256326  0.4813248608318688  1.0000
  C   C46       1.0  0.7425553742047272  0.5051130991106447  0.01892891926441107  1.0000
  C   C47       1.0  0.5139974050323987  0.7761880940014052  0.5186718771585177  1.0000
  C   C48       1.0  0.2574364172590932  0.4948877910556249  0.9810644996710991  1.0000
  C   C49       1.0  0.7745346714954026  0.8538482420846664  0.4142585427657793  1.0000
  C   C50       1.0  0.4392838625454517  0.8602661801712942  0.08589804419411001  1.0000
  C   C51       1.0  0.22546895408090256  0.146147588969356  0.5857409765867986  1.0000
  C   C52       1.0  0.5607182632292549  0.139731681421857  0.9141052519150109  1.0000
  C   C53       1.0  0.806166758944052  0.761718262522976  0.2680875367101052  1.0000
  C   C54       1.0  0.4935786123335718  0.03805671266601249  0.23211476337547052  1.0000
  C   C55       1.0  0.19383833952745283  0.23827962098499  0.7319126024200601  1.0000
  C   C56       1.0  0.5064235053684671  0.961941151040165  0.7678873039685782  1.0000
  C   C57       1.0  0.759194557084939  0.743703715088344  0.3382667794069576  1.0000
  C   C58       1.0  0.4052453515836235  0.9208744930404794  0.16193373431125482  1.0000
  C   C59       1.0  0.24081131146903093  0.2562931478675025  0.66173454325763  1.0000
  C   C60       1.0  0.594756004108618  0.07912438910479842  0.8380683782634506  1.0000
  C   C61       1.0  0.6281497042256703  0.40984448409756874  0.6162886775137437  1.0000
  C   C62       1.0  0.7930377993328293  0.5117762005114342  0.8837525610462506  1.0000
  C   C63       1.0  0.37184539242083053  0.5901533506607706  0.38370785408123  1.0000
  C   C64       1.0  0.20695988774809854  0.48823289841408984  0.11624395138218799  1.0000
  C   C65       1.0  0.5046267860384859  0.3520947747670036  0.5445701680863522  1.0000
  C   C66       1.0  0.8073392307439065  0.46028633869181573  0.9555434526082891  1.0000
  C   C67       1.0  0.4953644129341016  0.647894861615903  0.45542362289320687  1.0000
  C   C68       1.0  0.19265451964770364  0.5397186480208944  0.044452872591278884  1.0000
  Br  Br1       1.0  0.2100706173491318  0.1665649682325281  0.263739509878917  1.0000
  Br  Br2       1.0  0.9026969651521101  0.4458370590906782  0.23610457535438198  1.0000
  Br  Br3       1.0  0.7899388219506066  0.8334646343741311  0.7362657429219155  1.0000
  Br  Br4       1.0  0.0972900023202214  0.5541556084910582  0.7638969854126358  1.0000
  N   N1        1.0  0.9372184990131062  0.1408543666721158  0.36700033628302725  1.0000
  N   N2        1.0  0.773699841491329  0.07034860935324619  0.1329745077308004  1.0000
  N   N3        1.0  0.0627853715976627  0.859142485899895  0.6330006335040395  1.0000
  N   N4        1.0  0.22630210248232877  0.9296441382202475  0.8670284708525172  1.0000
  N   N5        1.0  0.867056496105498  0.11246012743959705  0.4798596283997583  1.0000
  N   N6        1.0  0.6322457851913938  0.8871860252206787  0.02017875916977367  1.0000
  N   N7        1.0  0.13294484747773785  0.8875387578752054  0.520140641027332  1.0000
  N   N8        1.0  0.36775056757017677  0.11281283307804561  0.9798212424460716  1.0000
