data_image0
_chemical_formula_structural       Zn12H60C96N18O48
_chemical_formula_sum              "Zn12 H60 C96 N18 O48"
_cell_length_a       14.809866424164703
_cell_length_b       19.37211699660313
_cell_length_c       19.657602967160972
_cell_angle_alpha    116.025948993595
_cell_angle_beta     90.0000877175063
_cell_angle_gamma    90.00269089226198

_space_group_name_H-M_alt    "P 1"
_space_group_IT_number       1

loop_
  _space_group_symop_operation_xyz
  'x, y, z'

loop_
  _atom_site_type_symbol
  _atom_site_label
  _atom_site_symmetry_multiplicity
  _atom_site_fract_x
  _atom_site_fract_y
  _atom_site_fract_z
  _atom_site_occupancy
  Zn  Zn1       1.0  0.23683397360953515  0.41285962095671636  0.7515465709993663  1.0000
  Zn  Zn2       1.0  0.7368318954464002  0.5871373298163431  0.24844310388219523  1.0000
  Zn  Zn3       1.0  0.5746089324882819  0.5084645637638232  0.6346561582379167  1.0000
  Zn  Zn4       1.0  0.07459621155067711  0.4915417706568874  0.36533334479103274  1.0000
  Zn  Zn5       1.0  0.6378509312811645  0.4723327993939677  0.7787052594962418  1.0000
  Zn  Zn6       1.0  0.13786109317386772  0.527673491286201  0.2212888730606082  1.0000
  Zn  Zn7       1.0  0.08273320269064041  0.9733191047317648  0.19382388189872307  1.0000
  Zn  Zn8       1.0  0.5827333978525431  0.0266835109045616  0.8061869060972597  1.0000
  Zn  Zn9       1.0  0.19762107282434732  0.13110659505268524  0.8186569748202286  1.0000
  Zn  Zn10      1.0  0.6976099223703189  0.868880537874837  0.18133347726850976  1.0000
  Zn  Zn11      1.0  0.2574621111693888  0.06614515814121087  0.6430968747720129  1.0000
  Zn  Zn12      1.0  0.7574559869008867  0.9338538205521016  0.35691100038567214  1.0000
  H   H1        1.0  0.6235978618256582  0.9344026636514969  0.9692207747173143  1.0000
  H   H2        1.0  0.12360006310588291  0.06559199802662616  0.030795250227321  1.0000
  H   H3        1.0  0.65296430428063  0.7014535502870273  0.9392167758878925  1.0000
  H   H4        1.0  0.15299579825803994  0.29854364138238754  0.06077799779863821  1.0000
  H   H5        1.0  0.37362131136632126  0.4359930270546498  0.8647089415453024  1.0000
  H   H6        1.0  0.8736290662350328  0.564060074949886  0.13529460299507434  1.0000
  H   H7        1.0  0.4937730961121576  0.43995965476375426  0.869509922681054  1.0000
  H   H8        1.0  0.993779921858753  0.5601023102511888  0.1304904846266197  1.0000
  H   H9        1.0  0.438697548776105  0.35087831391228963  0.8151724306987235  1.0000
  H   H10       1.0  0.9387099784926181  0.6491742030383137  0.18485331503039507  1.0000
  H   H11       1.0  0.26915436859414404  0.4621585208806492  0.6261462325281855  1.0000
  H   H12       1.0  0.7691326086043376  0.5377951725858663  0.3737885619835168  1.0000
  H   H13       1.0  0.3444258177492402  0.398966486449666  0.5559667874677885  1.0000
  H   H14       1.0  0.844395265178186  0.6009807577739321  0.4439886886290836  1.0000
  H   H15       1.0  0.36337243654288903  0.5002566224479923  0.5973515434847059  1.0000
  H   H16       1.0  0.8633436539412499  0.4996909541786393  0.4025837496498283  1.0000
  H   H17       1.0  0.9343260972322655  0.9484518125769339  0.08094432221422916  1.0000
  H   H18       1.0  0.43432037724188893  0.051553961261880894  0.9190667019417447  1.0000
  H   H19       1.0  0.8221524383855936  0.9117735154556073  0.07134450288887006  1.0000
  H   H20       1.0  0.32215575350088704  0.08823698175784499  0.9286699755897486  1.0000
  H   H21       1.0  0.9170042486019984  0.852100784471439  0.0654128172353837  1.0000
  H   H22       1.0  0.41701733549675174  0.14790250373625466  0.9345915117596846  1.0000
  H   H23       1.0  0.023401264962998904  0.9937387323806564  0.3743810317299464  1.0000
  H   H24       1.0  0.5234066017538268  0.0062692412711698  0.6256391407852107  1.0000
  H   H25       1.0  0.9251547679580838  0.0493408691705497  0.4160003427579396  1.0000
  H   H26       1.0  0.4251647350076412  0.9506650633507832  0.5840122663248835  1.0000
  H   H27       1.0  0.0044363729286374005  0.08056327749094548  0.3664886508258078  1.0000
  H   H28       1.0  0.5044352975221998  0.9194467332145208  0.6335262813448496  1.0000
  H   H29       1.0  0.12641123778210783  0.37392838726884753  0.8787662132049121  1.0000
  H   H30       1.0  0.6264167175267377  0.6260618275182493  0.12123974306668842  1.0000
  H   H31       1.0  0.23858730328208114  0.37849322700066773  0.9107063935900682  1.0000
  H   H32       1.0  0.7385917644698028  0.6215106626681147  0.08929850763540516  1.0000
  H   H33       1.0  0.16465801075383982  0.30636438010539996  0.9122829732988577  1.0000
  H   H34       1.0  0.6646554421851011  0.693632155030329  0.08772322837673144  1.0000
  H   H35       1.0  0.35208453677032037  0.23253358029304394  0.6033377773454731  1.0000
  H   H36       1.0  0.8520796974095576  0.7674570146390707  0.39666503338752795  1.0000
  H   H37       1.0  0.2531386232335606  0.2855537797753557  0.6035297798051291  1.0000
  H   H38       1.0  0.7531170064209078  0.7144450057708409  0.3964774979058063  1.0000
  H   H39       1.0  0.24993891532275112  0.18341919503448167  0.5644192967165154  1.0000
  H   H40       1.0  0.7499432606133639  0.8165834671790932  0.43559017080293233  1.0000
  H   H41       1.0  0.8956152238921433  0.41918939682408046  0.711370045104573  1.0000
  H   H42       1.0  0.3956044891813379  0.5808301443085069  0.2886484449236518  1.0000
  H   H43       1.0  0.09625790745155172  0.4131477227545801  0.5501826428819854  1.0000
  H   H44       1.0  0.5962697060641632  0.586827972733765  0.44979967434044005  1.0000
  H   H45       1.0  0.8127388073298506  0.42859003505480325  0.5056684851929134  1.0000
  H   H46       1.0  0.3127535496587086  0.5714171407965906  0.4943542050332681  1.0000
  H   H47       1.0  0.192720492155523  0.5259945933142517  0.996494471260604  1.0000
  H   H48       1.0  0.6926974508131282  0.47400903010563405  0.003484319151560652  1.0000
  H   H49       1.0  0.1725745948157282  0.7074926893415565  0.9262244620954619  1.0000
  H   H50       1.0  0.6726181373112753  0.2925123048053138  0.07376354975156123  1.0000
  H   H51       1.0  0.14781356982324212  0.7588940958341581  0.16288533962145382  1.0000
  H   H52       1.0  0.6478439411775271  0.2410936898920255  0.8370992364111345  1.0000
  H   H53       1.0  0.5942930952504427  0.7451926940507648  0.7470433894665406  1.0000
  H   H54       1.0  0.0942979546276987  0.2548225393925562  0.2529601767398546  1.0000
  H   H55       1.0  0.42364650049584185  0.9514274213917489  0.2221818486436434  1.0000
  H   H56       1.0  0.9236311117806794  0.04858994450964361  0.777831148809568  1.0000
  H   H57       1.0  0.5167024820266023  0.018096080920571498  0.45000167145078507  1.0000
  H   H58       1.0  0.016701482189915903  0.9819001151251997  0.5500087972005832  1.0000
  H   H59       1.0  0.23214167624167462  0.0248948574085901  0.4061947873726126  1.0000
  H   H60       1.0  0.7321365318607109  0.9750915046394296  0.5938040160869705  1.0000
  C   C1        1.0  0.593042771809074  0.9021958624116094  0.8244457758213103  1.0000
  C   C2        1.0  0.0930506186420459  0.0978135257215555  0.1755715276184588  1.0000
  C   C3        1.0  0.6068392852180937  0.8454948385778706  0.8549415475648485  1.0000
  C   C4        1.0  0.10684449574463882  0.1545099920941198  0.1450763342496657  1.0000
  C   C5        1.0  0.6227964586644391  0.8728251421614244  0.932525717127028  1.0000
  C   C6        1.0  0.12280388304128562  0.1271821230847152  0.06749527518596923  1.0000
  C   C7        1.0  0.6389584360269752  0.8209535064371564  0.9628614583130003  1.0000
  C   C8        1.0  0.13897845599544212  0.17903382829764064  0.03714224291307739  1.0000
  C   C9        1.0  0.639554203634269  0.7420075060194761  0.9158254835017132  1.0000
  C   C10       1.0  0.13957851331305451  0.2579959543166551  0.08418013876990223  1.0000
  C   C11       1.0  0.6233856864323429  0.7147395599454073  0.838151408274136  1.0000
  C   C12       1.0  0.1233956245638552  0.2852625993834579  0.1618536306990563  1.0000
  C   C13       1.0  0.6235059148260121  0.6300278758194581  0.7885549761018923  1.0000
  C   C14       1.0  0.12350092168647113  0.3699806410865136  0.21144061667136074  1.0000
  C   C15       1.0  0.9207122806632954  0.9880680006686547  0.29579383216157157  1.0000
  C   C16       1.0  0.4207151770040697  0.011931421500378302  0.7042128906109042  1.0000
  C   C17       1.0  0.8849101244699186  0.936782163568992  0.17688781956140093  1.0000
  C   C18       1.0  0.38490696419766834  0.0632190873431995  0.8231232191733752  1.0000
  C   C19       1.0  0.4359931813713446  0.4130777101860303  0.8325167612932985  1.0000
  C   C20       1.0  0.9360044387715193  0.586971284571163  0.1674906633963857  1.0000
  C   C21       1.0  0.4379686558604803  0.429435519335442  0.7654434629260507  1.0000
  C   C22       1.0  0.937975656626513  0.5705842779181083  0.23454720629746365  1.0000
  C   C23       1.0  0.395898513117004  0.447361318910545  0.6688412376991124  1.0000
  C   C24       1.0  0.8958985165537144  0.5526198484313057  0.33112344119394527  1.0000
  C   C25       1.0  0.34006759287753846  0.45259929521866127  0.6086360516990652  1.0000
  C   C26       1.0  0.8400491579248381  0.5473569880859231  0.3913075775385267  1.0000
  C   C27       1.0  0.8894940186887795  0.9106493655640548  0.09379531702037282  1.0000
  C   C28       1.0  0.38949600902510895  0.08935611534343478  0.9062165475519421  1.0000
  C   C29       1.0  0.9710748738338921  0.0303752102524228  0.367489698144027  1.0000
  C   C30       1.0  0.4710827295480868  0.9696293422206068  0.6325208360170651  1.0000
  C   C31       1.0  0.18357002007011403  0.3387112695760308  0.8807000672997559  1.0000
  C   C32       1.0  0.6835715931513138  0.6612866895643349  0.11930677416013682  1.0000
  C   C33       1.0  0.21137611725825425  0.28556528568162076  0.8025779231576778  1.0000
  C   C34       1.0  0.7113770711787526  0.7144333521167423  0.19742771791948852  1.0000
  C   C35       1.0  0.2517990194792503  0.2406566377717995  0.6849206323747268  1.0000
  C   C36       1.0  0.7517914949973915  0.7593426651684609  0.31508585127456007  1.0000
  C   C37       1.0  0.2783007141751527  0.23548569809505446  0.6098867702821948  1.0000
  C   C38       1.0  0.7782923040062499  0.7645130745994351  0.3901184949110999  1.0000
  C   C39       1.0  0.7487285401241907  0.43855644697481466  0.640529453792908  1.0000
  C   C40       1.0  0.24872282368340148  0.5614398332500627  0.3594802913061201  1.0000
  C   C41       1.0  0.8438126766586437  0.4249486161621902  0.6113436437238917  1.0000
  C   C42       1.0  0.3438166350739422  0.575057686638942  0.38866801864291023  1.0000
  C   C43       1.0  0.9123965255794462  0.418349564892324  0.657097045656414  1.0000
  C   C44       1.0  0.4123974265522605  0.5816603872387133  0.3429183134432208  1.0000
  C   C45       1.0  0.0030194538037520004  0.4125884565699636  0.6345365922614191  1.0000
  C   C46       1.0  0.5030236964821952  0.5874094660854963  0.365458841503461  1.0000
  C   C47       1.0  0.07401118284030872  0.40665102708547346  0.6858889542704674  1.0000
  C   C48       1.0  0.5740089396504899  0.5933317084559845  0.3140974149982014  1.0000
  C   C49       1.0  0.025761710873894107  0.41427228676050726  0.5663024388511531  1.0000
  C   C50       1.0  0.525770708406995  0.5857197570375449  0.43369300899083646  1.0000
  C   C51       1.0  0.9569417623544183  0.4204777197766063  0.5202289808965048  1.0000
  C   C52       1.0  0.45695900263809364  0.579522768104148  0.4797736667757563  1.0000
  C   C53       1.0  0.9794249074147957  0.4278968013804131  0.4495042995683817  1.0000
  C   C54       1.0  0.479456681754897  0.5720983902149256  0.550491493112311  1.0000
  C   C55       1.0  0.8658904311984018  0.4240610232965524  0.5418333431998903  1.0000
  C   C56       1.0  0.36590065626968044  0.5759439581176409  0.4581833652503633  1.0000
  C   C57       1.0  0.1617788503265345  0.6148355684208227  0.14803386549249353  1.0000
  C   C58       1.0  0.6617641249899723  0.3851557311916807  0.8519466571680212  1.0000
  C   C59       1.0  0.1700861893709771  0.6399306437936898  0.08614720517419983  1.0000
  C   C60       1.0  0.6700963689639182  0.36006447625314303  0.9138349869072754  1.0000
  C   C61       1.0  0.1837010662852734  0.5865350343225801  0.01063665187172812  1.0000
  C   C62       1.0  0.6836978079852614  0.4134676015951441  0.9893447516873621  1.0000
  C   C63       1.0  0.1852746688504538  0.6112578828903708  0.953230981582827  1.0000
  C   C64       1.0  0.685282235473629  0.38875171464266595  0.04675446636468912  1.0000
  C   C65       1.0  0.2006821610968359  0.5545171150573437  0.8723369795736885  1.0000
  C   C66       1.0  0.7006542242560841  0.44549776240235417  0.12765332341932384  1.0000
  C   C67       1.0  0.17238027319610444  0.6888480919323925  0.971119281298364  1.0000
  C   C68       1.0  0.6724140759022036  0.31115803520496843  0.028871766228974145  1.0000
  C   C69       1.0  0.15822288235148108  0.7418270961694517  0.046601153701210846  1.0000
  C   C70       1.0  0.6582673625576447  0.25817437271869886  0.9533883625703224  1.0000
  C   C71       1.0  0.15832617299915341  0.7175304124634324  0.10412410566566889  1.0000
  C   C72       1.0  0.6583544852764477  0.2824635969473944  0.8958606430141813  1.0000
  C   C73       1.0  0.14053049694647513  0.8245818020401998  0.06811334028363798  1.0000
  C   C74       1.0  0.6405691519360345  0.17541998049406965  0.9318910452680029  1.0000
  C   C75       1.0  0.658115976200868  0.8511410122207791  0.04502006212800324  1.0000
  C   C76       1.0  0.15813591291112064  0.1488218957302294  0.9549771152037466  1.0000
  C   C77       1.0  0.6068948706357845  0.7665051290289142  0.8074816447824276  1.0000
  C   C78       1.0  0.10690302375677872  0.2335100737304359  0.19253006143419074  1.0000
  C   C79       1.0  0.24580321492020832  0.9825195125926741  0.25595089638293445  1.0000
  C   C80       1.0  0.7457865164554677  0.017491608147210496  0.7440520680374405  1.0000
  C   C81       1.0  0.3204989687139276  0.9898925556184397  0.30923596779354784  1.0000
  C   C82       1.0  0.8204898142457396  0.010112143407752702  0.6907683585457888  1.0000
  C   C83       1.0  0.40960116939978525  0.9725552186437835  0.28240809760266217  1.0000
  C   C84       1.0  0.9095917869116193  0.027455207271444196  0.7175983074881955  1.0000
  C   C85       1.0  0.48000929721112595  0.9818285392500385  0.33314212449421643  1.0000
  C   C86       1.0  0.9800019445449807  0.0181746852296527  0.6668698773194279  1.0000
  C   C87       1.0  0.5746002134229045  0.9582550033354947  0.3059148386474392  1.0000
  C   C88       1.0  0.0745975028705317  0.041742068449408996  0.6940965834738506  1.0000
  C   C89       1.0  0.46164766912259847  0.0096597895767374  0.4104221573527269  1.0000
  C   C90       1.0  0.9616441326469884  0.9903408868842829  0.5895887168435295  1.0000
  C   C91       1.0  0.3724346463499942  0.024261316825388204  0.4365688561974892  1.0000
  C   C92       1.0  0.8724294823944093  0.975733061641968  0.5634366386828661  1.0000
  C   C93       1.0  0.35365071078918225  0.04886852339821959  0.5184026948970697  1.0000
  C   C94       1.0  0.853651296570746  0.9511255845577223  0.4816031703151823  1.0000
  C   C95       1.0  0.3015977380188986  0.014580596805551198  0.38611308685081264  1.0000
  C   C96       1.0  0.8015905685660842  0.9854117571806285  0.6138883974633274  1.0000
  N   N1        1.0  0.9529119089191483  0.9731799148937835  0.2260848016021554  1.0000
  N   N2        1.0  0.4529077570139466  0.0268255406838591  0.7739276309933061  1.0000
  N   N3        1.0  0.8136810460758143  0.928739832969185  0.21446520184540674  1.0000
  N   N4        1.0  0.31368101000214216  0.07125420166450878  0.785541095892512  1.0000
  N   N5        1.0  0.8366040022120488  0.9611862422654056  0.29014340985492043  1.0000
  N   N6        1.0  0.33660789349220727  0.03880825040119619  0.7098620949243539  1.0000
  N   N7        1.0  0.4849395538444982  0.46005258081035555  0.6770484557732388  1.0000
  N   N8        1.0  0.9849394334685259  0.5399377420690997  0.322925387561469  1.0000
  N   N9        1.0  0.5114540070244261  0.4483032982447526  0.7383136945627626  1.0000
  N   N10       1.0  0.011456952877622903  0.5517105484468984  0.26167595068754684  1.0000
  N   N11       1.0  0.3645648071247082  0.42814805269799183  0.7232714241780585  1.0000
  N   N12       1.0  0.864567241963947  0.5718512318664749  0.27670363648350366  1.0000
  N   N13       1.0  0.21589774885074323  0.2093213490052079  0.7754550112117045  1.0000
  N   N14       1.0  0.7158926582299687  0.7906792109365454  0.22455299628791184  1.0000
  N   N15       1.0  0.24137035443430935  0.18079432180945787  0.7006696478376354  1.0000
  N   N16       1.0  0.7413597424090385  0.8192079538061209  0.2993401508837296  1.0000
  N   N17       1.0  0.23410616771386125  0.3070124567385689  0.747430079949872  1.0000
  N   N18       1.0  0.7341059047090966  0.6929849083372305  0.2525735071300162  1.0000
  O   O1        1.0  0.5820057605164664  0.9736201378855968  0.8724481441447693  1.0000
  O   O2        1.0  0.08200100259614373  0.026388186743858497  0.1275661413439551  1.0000
  O   O3        1.0  0.6090945174524551  0.6084585095884734  0.7182006906710043  1.0000
  O   O4        1.0  0.10908761614395251  0.39155050609330994  0.2817961202879857  1.0000
  O   O5        1.0  0.736548216331407  0.43879446599586197  0.7047619458112138  1.0000
  O   O6        1.0  0.23656396708006616  0.5611794480232319  0.295234505435353  1.0000
  O   O7        1.0  0.6892266474954668  0.45058641808573446  0.6001410524448474  1.0000
  O   O8        1.0  0.18921283982908932  0.5494249975245324  0.3998752038516002  1.0000
  O   O9        1.0  0.051034296695228  0.3948150109676334  0.7412622342707706  1.0000
  O   O10       1.0  0.551032675598144  0.6051333824269348  0.2587061336470527  1.0000
  O   O11       1.0  0.1574874921646341  0.41368250306270216  0.6703140698950207  1.0000
  O   O12       1.0  0.6574848457591288  0.5863194936355994  0.32968025329306283  1.0000
  O   O13       1.0  0.9319351427968103  0.3923623280719609  0.39189195428117785  1.0000
  O   O14       1.0  0.43198340198407703  0.607627820879209  0.6081153296172914  1.0000
  O   O15       1.0  0.0457507583286727  0.47278755687449364  0.4532626991081514  1.0000
  O   O16       1.0  0.5457847229295895  0.5272140384457272  0.5467236951174144  1.0000
  O   O17       1.0  0.14813884160950155  0.663692261052354  0.2149180685081689  1.0000
  O   O18       1.0  0.6481088165470796  0.3362966854458944  0.7850675209833966  1.0000
  O   O19       1.0  0.165281671035153  0.5417116828244346  0.12931548502924536  1.0000
  O   O20       1.0  0.6652667692659762  0.45828091884528993  0.8706671334646431  1.0000
  O   O21       1.0  0.22392263404662324  0.485545248170041  0.8602490342492359  1.0000
  O   O22       1.0  0.7239475941127511  0.514460915559681  0.13973496438199365  1.0000
  O   O23       1.0  0.1904247089751578  0.5747512067122499  0.820517483378417  1.0000
  O   O24       1.0  0.6903281015808462  0.4252787481164474  0.17946867725255802  1.0000
  O   O25       1.0  0.08994104124877822  0.8597460104819274  0.12697080600786143  1.0000
  O   O26       1.0  0.589957154613309  0.14025404302315533  0.8730439637036155  1.0000
  O   O27       1.0  0.17348045051372202  0.8572653711295571  0.03132867471076399  1.0000
  O   O28       1.0  0.6735218861385236  0.14274191823162843  0.968676105566516  1.0000
  O   O29       1.0  0.593499295141271  0.8848108098203084  0.7545764897881782  1.0000
  O   O30       1.0  0.09351982957646501  0.11520031828789708  0.2454430964142063  1.0000
  O   O31       1.0  0.6379078477560824  0.5867907744218286  0.8209992671667123  1.0000
  O   O32       1.0  0.1378946569541668  0.41321667557574665  0.17899231696628704  1.0000
  O   O33       1.0  0.6737567716342383  0.8023449255449079  0.072533086163297  1.0000
  O   O34       1.0  0.1737931713084109  0.19761005309899818  0.9274662586038646  1.0000
  O   O35       1.0  0.6617158137806316  0.9222645646362153  0.08704056891176769  1.0000
  O   O36       1.0  0.16170697139617124  0.0777254536029446  0.9129867069314556  1.0000
  O   O37       1.0  0.16398190878533114  0.9761718411830524  0.2759521368369845  1.0000
  O   O38       1.0  0.6639682642349812  0.023839051268247098  0.7240506376501585  1.0000
  O   O39       1.0  0.26188570878084516  0.98357022754174  0.19369366715795164  1.0000
  O   O40       1.0  0.7618683909140247  0.016437008730782996  0.8063116967587121  1.0000
  O   O41       1.0  0.2760984300388785  0.028845661587787702  0.5346797789945938  1.0000
  O   O42       1.0  0.776106972691018  0.9711558890395224  0.46532516480370134  1.0000
  O   O43       1.0  0.41128716367192913  0.08708674792070777  0.5670421783788129  1.0000
  O   O44       1.0  0.911286646105289  0.9128978712710634  0.43296471444455165  1.0000
  O   O45       1.0  0.6349416448671122  0.975333165724429  0.35692719767383363  1.0000
  O   O46       1.0  0.1349377815063804  0.024675810440307096  0.6430884470653595  1.0000
  O   O47       1.0  0.586239907773944  0.921810166779835  0.2347221623666869  1.0000
  O   O48       1.0  0.08624228562292302  0.0781770695672535  0.7652916118461448  1.0000
