data_image0
_chemical_formula_structural       Zn4H44C40N12O24
_chemical_formula_sum              "Zn4 H44 C40 N12 O24"
_cell_length_a       10.069598807889536
_cell_length_b       9.975428901054705
_cell_length_c       13.316
_cell_angle_alpha    81.8788308003492
_cell_angle_beta     81.95528466297614
_cell_angle_gamma    66.49667663052026

_space_group_name_H-M_alt    "P 1"
_space_group_IT_number       1

loop_
  _space_group_symop_operation_xyz
  'x, y, z'

loop_
  _atom_site_type_symbol
  _atom_site_label
  _atom_site_symmetry_multiplicity
  _atom_site_fract_x
  _atom_site_fract_y
  _atom_site_fract_z
  _atom_site_occupancy
  Zn  Zn1       1.0  0.8197611668550595  0.629886095756163  0.7286135872015296  1.0000
  Zn  Zn2       1.0  0.3710829253789285  0.1799789067962649  0.7697757747942762  1.0000
  Zn  Zn3       1.0  0.18023559092856092  0.37011567283791896  0.2713859679672198  1.0000
  Zn  Zn4       1.0  0.628916841279242  0.8200228617978242  0.23022646585787507  1.0000
  H   H1        1.0  0.9747717344565391  0.9817898722105411  0.6752940327760869  1.0000
  H   H2        1.0  0.01980210657624331  0.0263351093007884  0.823086022944075  1.0000
  H   H3        1.0  0.02523113782144291  0.018206406242342203  0.3247114641290807  1.0000
  H   H4        1.0  0.9801955574203094  0.973672149434492  0.1769181121483855  1.0000
  H   H5        1.0  0.3132781091279782  0.0734613833201578  0.4786375108126748  1.0000
  H   H6        1.0  0.9273762444220994  0.6866958808213823  0.021487021266068544  1.0000
  H   H7        1.0  0.6867223367013082  0.9265359931609681  0.5213643717945615  1.0000
  H   H8        1.0  0.07262093389384458  0.3133047897444641  0.9785080997427615  1.0000
  H   H9        1.0  0.271364555926553  0.6607198267549776  0.47981958696377097  1.0000
  H   H10       1.0  0.33687804899643237  0.7278774299510573  0.020272427442378706  1.0000
  H   H11       1.0  0.728639157416076  0.3392742556414348  0.5201830494317223  1.0000
  H   H12       1.0  0.6631209733423518  0.2721210445583111  0.9797257347263726  1.0000
  H   H13       1.0  0.5550925784274414  0.5843849035315429  0.5675292484155037  1.0000
  H   H14       1.0  0.4146452624541582  0.44618487322734524  0.9323474792451025  1.0000
  H   H15       1.0  0.44490618527254366  0.415616865062546  0.4324678415433213  1.0000
  H   H16       1.0  0.5853550866298747  0.5538179933949792  0.06765007771117837  1.0000
  H   H17       1.0  0.6285188669619686  0.7215121602455596  0.5362434384567578  1.0000
  H   H18       1.0  0.2800380740031514  0.3705186492018839  0.9631605674539045  1.0000
  H   H19       1.0  0.37148132022853286  0.2784885103202868  0.46375436803548103  1.0000
  H   H20       1.0  0.7199624369744059  0.6294864134769186  0.0368382419189572  1.0000
  H   H21       1.0  0.42027877125948265  0.7998916120512973  0.6695018861526593  1.0000
  H   H22       1.0  0.2006152863257  0.5820955146517832  0.8306484471292706  1.0000
  H   H23       1.0  0.5797209953986879  0.2001101565427845  0.3304958486418742  1.0000
  H   H24       1.0  0.7993866481423736  0.41790844999878374  0.1693495768244659  1.0000
  H   H25       1.0  0.5053513883190847  0.6351588273631705  0.7485584368106614  1.0000
  H   H26       1.0  0.3633926456329278  0.49750341906586476  0.7511306793723735  1.0000
  H   H27       1.0  0.49464679295504516  0.36484184320267593  0.2514388309864232  1.0000
  H   H28       1.0  0.6366072829187742  0.5025005455847023  0.24886755686247858  1.0000
  H   H29       1.0  0.8305903632102343  0.5086967189412874  0.5582575835926066  1.0000
  H   H30       1.0  0.4914248285438348  0.1680060068706553  0.9405738004028807  1.0000
  H   H31       1.0  0.1694094034479434  0.4913050496527945  0.44174090217819645  1.0000
  H   H32       1.0  0.5085761029660532  0.8319979577799118  0.05942733359648857  1.0000
  H   H33       1.0  0.755755347144536  0.4415863309595167  0.6603850484047343  1.0000
  H   H34       1.0  0.5573767784741862  0.24478453350292284  0.8389482638422336  1.0000
  H   H35       1.0  0.24424241359727017  0.5584154376345722  0.33961289867091443  1.0000
  H   H36       1.0  0.44262399114216333  0.7552172350911663  0.1610508667642847  1.0000
  H   H37       1.0  0.5669468240131721  0.8051357949240696  0.8098590076206238  1.0000
  H   H38       1.0  0.1950122879112756  0.434652282625855  0.6899051754929175  1.0000
  H   H39       1.0  0.4330499337704482  0.1948659736700122  0.19013904559558634  1.0000
  H   H40       1.0  0.8049874787469026  0.565349485968234  0.3100948122304317  1.0000
  H   H41       1.0  0.5994256507902804  0.8817660877439835  0.697827882490934  1.0000
  H   H42       1.0  0.12044575114124709  0.40040038971688574  0.8019408335197442  1.0000
  H   H43       1.0  0.40057453640022095  0.11823458282186292  0.30217067497757455  1.0000
  H   H44       1.0  0.8795527539199526  0.5996046729619238  0.19806044106304196  1.0000
  C   C1        1.0  0.04294655121107385  0.7045849569024583  0.620845550187589  1.0000
  C   C2        1.0  0.2956544461690669  0.955828092511247  0.8775249367658662  1.0000
  C   C3        1.0  0.957055318108722  0.29541132155043215  0.3791555470005222  1.0000
  C   C4        1.0  0.7043457410214345  0.0441725780545923  0.12247587363145132  1.0000
  C   C5        1.0  0.11781514489079822  0.8082311365317667  0.583463991158425  1.0000
  C   C6        1.0  0.19157492069980017  0.8820274184650289  0.9155152190786497  1.0000
  C   C7        1.0  0.8821875654936451  0.19176294586464596  0.4165387513776225  1.0000
  C   C8        1.0  0.8084242635325155  0.11797325210081772  0.08448419550668261  1.0000
  C   C9        1.0  0.06898605840967781  0.9462456000634561  0.6196603005490644  1.0000
  C   C10       1.0  0.05475026416137042  0.9315957072894749  0.8791635809084897  1.0000
  C   C11       1.0  0.9310162314424418  0.05374958036119181  0.3803446232180931  1.0000
  C   C12       1.0  0.9452448114929554  0.0684104534175702  0.12083718942199793  1.0000
  C   C13       1.0  0.14207469632971478  0.037891856523550906  0.5811551001566359  1.0000
  C   C14       1.0  0.9632611894401606  0.8586910242868415  0.9181576120733015  1.0000
  C   C15       1.0  0.8579281759482669  0.9621044219293325  0.41884889479599957  1.0000
  C   C16       1.0  0.03673731562103201  0.1413140383919611  0.0818451644620168  1.0000
  C   C17       1.0  0.2590427946908705  0.9988378586600107  0.5062883629602412  1.0000
  C   C18       1.0  0.0016123999804236026  0.7410021615001057  0.99350918463324  1.0000
  C   C19       1.0  0.7409560657543751  0.0011584197928727002  0.4937138036258091  1.0000
  C   C20       1.0  0.9983867842518921  0.2589985090657407  0.006488727999553082  1.0000
  C   C21       1.0  0.3042233059456407  0.8623836932569235  0.46837177705998567  1.0000
  C   C22       1.0  0.13670414379020449  0.6954636363153315  0.03166040826397422  1.0000
  C   C23       1.0  0.6957784014806238  0.13761038913948204  0.5316318225928925  1.0000
  C   C24       1.0  0.8632948785485726  0.3045348381940371  0.9683385048810464  1.0000
  C   C25       1.0  0.23463268764618328  0.767559072505307  0.5086116231440556  1.0000
  C   C26       1.0  0.23116770557723504  0.764950157407803  0.9911566313907586  1.0000
  C   C27       1.0  0.7653680168218956  0.2324350098910983  0.491391331673107  1.0000
  C   C28       1.0  0.7688318991874041  0.23504941512980793  0.008841352939732924  1.0000
  C   C29       1.0  0.42435889825756595  0.8127835616135286  0.38429333754071143  1.0000
  C   C30       1.0  0.18534008729459833  0.575046173352959  0.11639639845912343  1.0000
  C   C31       1.0  0.5756450737238551  0.18720722669815612  0.6157096200884383  1.0000
  C   C32       1.0  0.8146656319643956  0.4249479090434535  0.8836000178450975  1.0000
  C   C33       1.0  0.6138003689831706  0.6405479499635831  0.5971015021995003  1.0000
  C   C34       1.0  0.35964359588905387  0.3866300175628937  0.9023807427303369  1.0000
  C   C35       1.0  0.3861983947168143  0.359453818630506  0.40289633873559444  1.0000
  C   C36       1.0  0.6403577561531577  0.6133728490594308  0.09761745906165945  1.0000
  C   C37       1.0  0.5255378778242986  0.7165633469692665  0.6908239858908161  1.0000
  C   C38       1.0  0.2833533572205766  0.47626316079724523  0.8089380566555848  1.0000
  C   C39       1.0  0.4744618888338722  0.2834384216248226  0.30917374890371724  1.0000
  C   C40       1.0  0.7166469918634489  0.5237397058250792  0.19106175322949784  1.0000
  N   N1        1.0  0.09179004713276838  0.18246703878740794  0.6194943818547927  1.0000
  N   N2        1.0  0.8195460886752173  0.9100875301303759  0.8801195579763289  1.0000
  N   N3        1.0  0.9082124046128827  0.8175303376937253  0.3805080394476051  1.0000
  N   N4        1.0  0.1804512515342651  0.08991533649194851  0.11988057033043024  1.0000
  N   N5        1.0  0.7606658238316015  0.5367052232793698  0.6229277574183173  1.0000
  N   N6        1.0  0.46334772468821955  0.2389858463691041  0.8760515345448783  1.0000
  N   N7        1.0  0.2393329398683903  0.4632965453147193  0.377070834493047  1.0000
  N   N8        1.0  0.5366526243958134  0.7610170202532203  0.12394902631648112  1.0000
  N   N9        1.0  0.6090968701087149  0.7817587737010143  0.7365520890356695  1.0000
  N   N10       1.0  0.21903724645054723  0.3918456517014377  0.7631003627821543  1.0000
  N   N11       1.0  0.39090173169774545  0.21824079883658953  0.2634467524116532  1.0000
  N   N12       1.0  0.7809625202076305  0.6081561168926513  0.2369003759174646  1.0000
  O   O1        1.0  0.9399496673779668  0.747827505038032  0.693209379423891  1.0000
  O   O2        1.0  0.25427956476816865  0.0585567479945723  0.8040493677448953  1.0000
  O   O3        1.0  0.06005119898364339  0.2521687734148514  0.3067918239047743  1.0000
  O   O4        1.0  0.745718357867176  0.9414472166559946  0.195955088581222  1.0000
  O   O5        1.0  0.08230789445426016  0.5860824551901089  0.5814895605040178  1.0000
  O   O6        1.0  0.4127520842941479  0.9159147659984228  0.9174567440098047  1.0000
  O   O7        1.0  0.91769297190735  0.4139138232627815  0.4185123938009171  1.0000
  O   O8        1.0  0.5872479410028149  0.0840837085109456  0.08254356494719425  1.0000
  O   O9        1.0  0.45843097850849557  0.6894695001548501  0.3538697651973663  1.0000
  O   O10       1.0  0.3075788916486887  0.5408129469240566  0.14683967178395116  1.0000
  O   O11       1.0  0.5415660379139169  0.3105289743545185  0.6461338660863873  1.0000
  O   O12       1.0  0.6924249184391942  0.4591756453311504  0.8531515197608429  1.0000
  O   O13       1.0  0.48629959130750666  0.9040999821393286  0.34768326160245533  1.0000
  O   O14       1.0  0.09466005443692177  0.5131426352838062  0.153635104945046  1.0000
  O   O15       1.0  0.5137026985446128  0.09589519828531932  0.6523209111884327  1.0000
  O   O16       1.0  0.905339970860041  0.48685583922556225  0.8463637020594135  1.0000
  O   O17       1.0  0.16492536989934342  0.2579828329440303  0.590813170881745  1.0000
  O   O18       1.0  0.7441579664411864  0.8369368888020503  0.9093213210488216  1.0000
  O   O19       1.0  0.8350795082950031  0.7420134455088603  0.4091876078846894  1.0000
  O   O20       1.0  0.2558402148329435  0.1630637817637961  0.0906789506533414  1.0000
  O   O21       1.0  0.9788160457435142  0.2215370796121476  0.6783608873612152  1.0000
  O   O22       1.0  0.7808989684619262  0.024192856205147006  0.821138135008333  1.0000
  O   O23       1.0  0.021183882808195255  0.7784668850384193  0.3216388508261759  1.0000
  O   O24       1.0  0.21909963334452703  0.975806716332457  0.17885995546271977  1.0000
