data_image0
_chemical_formula_structural       Zn4H40C32O16
_chemical_formula_sum              "Zn4 H40 C32 O16"
_cell_length_a       6.073514388008269
_cell_length_b       8.394343514714748
_cell_length_c       16.190750468588238
_cell_angle_alpha    102.44103782558206
_cell_angle_beta     89.99993239402221
_cell_angle_gamma    89.99984570310578

_space_group_name_H-M_alt    "P 1"
_space_group_IT_number       1

loop_
  _space_group_symop_operation_xyz
  'x, y, z'

loop_
  _atom_site_type_symbol
  _atom_site_label
  _atom_site_symmetry_multiplicity
  _atom_site_fract_x
  _atom_site_fract_y
  _atom_site_fract_z
  _atom_site_occupancy
  Zn  Zn1       1.0  0.7525066660230239  0.9091731551186085  0.9878537814091433  1.0000
  Zn  Zn2       1.0  0.2525496267468625  0.090838412118373  0.5121449105261179  1.0000
  Zn  Zn3       1.0  0.2474578628838202  0.09084869412070161  0.012142062250191505  1.0000
  Zn  Zn4       1.0  0.7474758224405633  0.9091614591743992  0.4878546370848441  1.0000
  H   H1        1.0  0.09987215130929171  0.19636955089185898  0.28651163202980007  1.0000
  H   H2        1.0  0.5998700048343011  0.8036214470151536  0.21347556141116544  1.0000
  H   H3        1.0  0.9001335399951316  0.8036193661623869  0.713478654002188  1.0000
  H   H4        1.0  0.4001307469668305  0.19637477224348743  0.7865211048197552  1.0000
  H   H5        1.0  0.1589744492863403  0.3637767899726683  0.24011418301343215  1.0000
  H   H6        1.0  0.6589776844969463  0.6362152954525799  0.25987187320976096  1.0000
  H   H7        1.0  0.8410197165596429  0.6362121155359048  0.7598798075462839  1.0000
  H   H8        1.0  0.3410181278535802  0.36377363124550743  0.7401153257223143  1.0000
  H   H9        1.0  0.11414988968991929  0.45609922255394497  0.3976088738390828  1.0000
  H   H10       1.0  0.6141309326944439  0.5438905263874075  0.1023769379621484  1.0000
  H   H11       1.0  0.8858590945919076  0.5438921266362441  0.6023841563448755  1.0000
  H   H12       1.0  0.38585170769242433  0.456108161635207  0.8976107414356566  1.0000
  H   H13       1.0  0.9089153751002996  0.5427555431476492  0.3436008803159042  1.0000
  H   H14       1.0  0.408900561725602  0.4572469280646985  0.15639180030778022  1.0000
  H   H15       1.0  0.09109525565748558  0.4572418960224596  0.6563959231469454  1.0000
  H   H16       1.0  0.5910787856587304  0.5427578518700216  0.8435990349499323  1.0000
  H   H17       1.0  0.4621432143135634  0.24731007382107612  0.37808691255275323  1.0000
  H   H18       1.0  0.9621267388065391  0.7527080758868222  0.12192603907612212  1.0000
  H   H19       1.0  0.5378723559096343  0.7526861145966063  0.6219196324035182  1.0000
  H   H20       1.0  0.03784931553772711  0.2473076236361393  0.8780851713398904  1.0000
  H   H21       1.0  0.511359950288842  0.42073062628588076  0.3353979152011348  1.0000
  H   H22       1.0  0.011341380440846599  0.5792812642912962  0.16460772350149713  1.0000
  H   H23       1.0  0.4886490339681941  0.5792643499225109  0.6646060228395216  1.0000
  H   H24       1.0  0.9886494923681751  0.4207259130930225  0.8353969694770387  1.0000
  H   H25       1.0  0.7004423024358459  0.07696085672893099  0.27096692314401594  1.0000
  H   H26       1.0  0.20045357157019342  0.9230457143686974  0.2290392747273273  1.0000
  H   H27       1.0  0.299560095860528  0.9230316931267808  0.7290324184838397  1.0000
  H   H28       1.0  0.7995619986474978  0.0769553614463803  0.7709653494873409  1.0000
  H   H29       1.0  0.4979037991945532  0.17185844806839157  0.22037963845074424  1.0000
  H   H30       1.0  0.9979211009334535  0.8281437582363438  0.279632122562795  1.0000
  H   H31       1.0  0.5020870736265123  0.8281426297016451  0.7796243683515558  1.0000
  H   H32       1.0  0.002096115776375  0.17185364239632853  0.7203770293107541  1.0000
  H   H33       1.0  0.7387634455983374  0.45257251462967923  0.458356872387249  1.0000
  H   H34       1.0  0.23871741204094118  0.547437641444425  0.0416453895819728  1.0000
  H   H35       1.0  0.26126035710451834  0.5474224750470781  0.5416427437039247  1.0000
  H   H36       1.0  0.7612504098419278  0.4525841885261741  0.9583566282827152  1.0000
  H   H37       1.0  0.7689425673694572  0.38609404912842393  0.2025090913037459  1.0000
  H   H38       1.0  0.2689662363682004  0.6139111595270066  0.29749198405466615  1.0000
  H   H39       1.0  0.2310499519520235  0.6139033688711494  0.7974945037922654  1.0000
  H   H40       1.0  0.7310476873728361  0.38608627385983135  0.7025066716690205  1.0000
  C   C1        1.0  0.8902517572826484  0.16712542593850796  0.1304397842796732  1.0000
  C   C2        1.0  0.39029086703826726  0.8328477677064756  0.36956319844247093  1.0000
  C   C3        1.0  0.1097193576688369  0.8328573761293753  0.8695547549528372  1.0000
  C   C4        1.0  0.6097279961729924  0.16713862857420733  0.6304527447816994  1.0000
  C   C5        1.0  0.8275299188153085  0.26987899252559805  0.21611369260505603  1.0000
  C   C6        1.0  0.3275400464265558  0.7301212168016847  0.283881855186941  1.0000
  C   C7        1.0  0.17246753998501416  0.7301208730199632  0.7838877072772095  1.0000
  C   C8        1.0  0.6724639983667869  0.2698725645339408  0.7161139191517379  1.0000
  C   C9        1.0  0.0309728165325822  0.3100785269292031  0.2735262441818095  1.0000
  C   C10       1.0  0.5309726791075421  0.6899248174820868  0.2264660723106289  1.0000
  C   C11       1.0  0.969031228242514  0.6899213424617515  0.726473920856961  1.0000
  C   C12       1.0  0.46902807269049857  0.3100750692510914  0.7735285359434487  1.0000
  C   C13       1.0  0.9697600695538925  0.42683227770412907  0.35638164317929016  1.0000
  C   C14       1.0  0.4697465314905501  0.5731688333156625  0.14361085943106391  1.0000
  C   C15       1.0  0.030243975231186895  0.573165161473568  0.6436151602857692  1.0000
  C   C16       1.0  0.5302394018547859  0.4268371491958902  0.8563856698454944  1.0000
  C   C17       1.0  0.7863934644405504  0.35617590276065403  0.4035394139929238  1.0000
  C   C18       1.0  0.2863683068660237  0.6438329370481738  0.09645835686825421  1.0000
  C   C19       1.0  0.21362375228753192  0.6438190830707101  0.5964614369417447  1.0000
  C   C20       1.0  0.7136159799672015  0.3561815810722848  0.9035403678968593  1.0000
  C   C21       1.0  0.5862064220443557  0.3072573651256292  0.3459744744438638  1.0000
  C   C22       1.0  0.08619406831996912  0.6927592229561341  0.15403475013933846  1.0000
  C   C23       1.0  0.4138075016784342  0.6927424830625241  0.654032482218696  1.0000
  C   C24       1.0  0.9137951579827969  0.3072540521178695  0.8459712464366123  1.0000
  C   C25       1.0  0.6447659405104957  0.1957877568785378  0.26078756207946446  1.0000
  C   C26       1.0  0.14477759993893358  0.8042177207227184  0.23921915329103172  1.0000
  C   C27       1.0  0.3552331647950453  0.8042060090508444  0.7392131516260322  1.0000
  C   C28       1.0  0.855234677282418  0.195785785309404  0.760788832498456  1.0000
  C   C29       1.0  0.876940892026653  0.21873870574925286  0.44145646931785626  1.0000
  C   C30       1.0  0.3768840874094721  0.7812894267799281  0.058548993419435605  1.0000
  C   C31       1.0  0.12306973874111553  0.7812526299535918  0.5585408828100571  1.0000
  C   C32       1.0  0.6230409256029432  0.2187482314132652  0.9414646872481003  1.0000
  O   O1        1.0  0.0357069447467495  0.22658194448413843  0.08819064299005673  1.0000
  O   O2        1.0  0.5357338770559393  0.7734189606953662  0.4117976913261715  1.0000
  O   O3        1.0  0.9642789885868835  0.7734289138658496  0.9118076700687753  1.0000
  O   O4        1.0  0.46428663269224296  0.22656996597425658  0.5881895075976191  1.0000
  O   O5        1.0  0.7947751972187048  0.030244425927143905  0.10554766920008522  1.0000
  O   O6        1.0  0.29480385539700654  0.96975459851064  0.3944607291359717  1.0000
  O   O7        1.0  0.2052321404973014  0.9697700517104124  0.8944640213908459  1.0000
  O   O8        1.0  0.7052265333195109  0.030215979215967106  0.6055404641926074  1.0000
  O   O9        1.0  0.0404448252681107  0.25385726171144546  0.49205436583789464  1.0000
  O   O10       1.0  0.5404336953812034  0.7461594684686902  0.007943158421724697  1.0000
  O   O11       1.0  0.959578977418573  0.7461474931276298  0.5079444958733036  1.0000
  O   O12       1.0  0.4595785818398212  0.25385628110131353  0.9920519990453872  1.0000
  O   O13       1.0  0.7870887497551992  0.07870677008779843  0.42164324442263285  1.0000
  O   O14       1.0  0.28705442934129616  0.9212947485915775  0.078353702564165  1.0000
  O   O15       1.0  0.2129350529562615  0.9212870112250542  0.5783525299094237  1.0000
  O   O16       1.0  0.7129216250439327  0.07870755875085682  0.9216473543751251  1.0000
