data_image0
_chemical_formula_structural       Er2Cu2H32C48N8O16
_chemical_formula_sum              "Er2 Cu2 H32 C48 N8 O16"
_cell_length_a       12.208132958472406
_cell_length_b       12.661021418839628
_cell_length_c       14.021476485397491
_cell_angle_alpha    77.88876961362031
_cell_angle_beta     64.2018384207954
_cell_angle_gamma    61.17721171285802

_space_group_name_H-M_alt    "P 1"
_space_group_IT_number       1

loop_
  _space_group_symop_operation_xyz
  'x, y, z'

loop_
  _atom_site_type_symbol
  _atom_site_label
  _atom_site_symmetry_multiplicity
  _atom_site_fract_x
  _atom_site_fract_y
  _atom_site_fract_z
  _atom_site_occupancy
  Er  Er1       1.0  0.04450442322398366  0.5000724091370331  0.49996741606586437  1.0000
  Er  Er2       1.0  0.294567761395079  0.9999313316903908  0.9999797069303256  1.0000
  Cu  Cu1       1.0  0.7890933699190795  0.9999922550110085  0.9999694434193956  1.0000
  Cu  Cu2       1.0  0.5390864775520897  0.5000113501934395  0.4999692372005525  1.0000
  H   H1        1.0  0.023848481152192715  0.803071647450075  0.8812657983454104  1.0000
  H   H2        1.0  0.7080688789041645  0.19682332098749106  0.11918580212080336  1.0000
  H   H3        1.0  0.5769120296431893  0.6969239990844187  0.38126944423285636  1.0000
  H   H4        1.0  0.6548846661817225  0.30318402142105316  0.6191871763452355  1.0000
  H   H5        1.0  0.6620535207737533  0.20171965861073465  0.88921343494318  1.0000
  H   H6        1.0  0.7524981655239245  0.7987976002533658  0.11102101530632062  1.0000
  H   H7        1.0  0.6137639714059374  0.29828776637423  0.38921600744986046  1.0000
  H   H8        1.0  0.3012942941565768  0.7011987714682988  0.6110232571417882  1.0000
  H   H9        1.0  0.7216759473758502  0.3444766265739005  0.7448080060541925  1.0000
  H   H10       1.0  0.8107017144876141  0.6557794227952485  0.25527074951525447  1.0000
  H   H11       1.0  0.8161445944567873  0.15552777131873796  0.24481471914062053  1.0000
  H   H12       1.0  0.21648146622150224  0.8442087127754759  0.7552812670344764  1.0000
  H   H13       1.0  0.1103273935635015  0.6767747985112678  0.7247797039792161  1.0000
  H   H14       1.0  0.5116182741692157  0.3230415829876065  0.27563258150803444  1.0000
  H   H15       1.0  0.5370972380065808  0.8232119839159039  0.22478415945774793  1.0000
  H   H16       1.0  0.5846442619526189  0.17696169097186498  0.7756281213242316  1.0000
  H   H17       1.0  0.02161450844506865  0.07843992296615451  0.9297523535210603  1.0000
  H   H18       1.0  0.030201326303036277  0.9212393552479268  0.06991654275054764  1.0000
  H   H19       1.0  0.8500474062384241  0.4215695724416193  0.42975882551132094  1.0000
  H   H20       1.0  0.7014376305025322  0.5787714000451131  0.5699150331760447  1.0000
  H   H21       1.0  0.0909984999935602  0.21914339256896642  0.7936272730034304  1.0000
  H   H22       1.0  0.1043682500437771  0.7802550900656509  0.2058961348323365  1.0000
  H   H23       1.0  0.060130546715804194  0.2808582550678409  0.2936372642846479  1.0000
  H   H24       1.0  0.6346115091768069  0.719741333705386  0.7059117124713267  1.0000
  H   H25       1.0  0.7041370797002459  0.8573194353443938  0.7306344052586766  1.0000
  H   H26       1.0  0.292098115139524  0.14248972036654806  0.2692585661136846  1.0000
  H   H27       1.0  0.3114531775207468  0.6426682581313726  0.23063635870415314  1.0000
  H   H28       1.0  0.18458506612795847  0.3575057126030501  0.7692518129369929  1.0000
  H   H29       1.0  0.6348053552453053  0.9790033753540824  0.8827718900316056  1.0000
  H   H30       1.0  0.49674112172676393  0.0208638761715321  0.1171968397141753  1.0000
  H   H31       1.0  0.3637859141970096  0.5209943104238376  0.382780420514969  1.0000
  H   H32       1.0  0.26759148793624377  0.4791539157675757  0.6172026184701238  1.0000
  C   C1        1.0  0.957313780784652  0.8133936789841981  0.8439178533150339  1.0000
  C   C2        1.0  0.6145473242870737  0.18645977503310016  0.15643663764978294  1.0000
  C   C3        1.0  0.5207001265693875  0.6866017805539499  0.34391948781929915  1.0000
  C   C4        1.0  0.5510005070864993  0.31354436779218986  0.6564351766760056  1.0000
  C   C5        1.0  0.7572455248613252  0.20741706591370954  0.8637461203318324  1.0000
  C   C6        1.0  0.8282060799908637  0.7928097432456339  0.13630957912587832  1.0000
  C   C7        1.0  0.71465545471726  0.2925900980268707  0.3637476319330659  1.0000
  C   C8        1.0  0.3710129286506004  0.7071874635338986  0.6363146619843221  1.0000
  C   C9        1.0  0.7898388900467878  0.2863993453061013  0.7845737070399751  1.0000
  C   C10       1.0  0.8607305371546019  0.7137027784642811  0.21539074286854276  1.0000
  C   C11       1.0  0.826232930120092  0.21360273204196292  0.28458225121674013  1.0000
  C   C12       1.0  0.3244329403930166  0.7862899456287876  0.7153990889381632  1.0000
  C   C13       1.0  0.004894824092126227  0.7439800324120824  0.7575372421593445  1.0000
  C   C14       1.0  0.506270541326245  0.2558217615835047  0.2427979852072326  1.0000
  C   C15       1.0  0.49886650638657687  0.7560121200520127  0.2575380872338754  1.0000
  C   C16       1.0  0.5120774857317014  0.2441839292175487  0.742796786349821  1.0000
  C   C17       1.0  0.9542124585804643  0.3708944938014511  0.6680957058640614  1.0000
  C   C18       1.0  0.9933134732190255  0.6290698459042758  0.3317391181210851  1.0000
  C   C19       1.0  0.0751029383695325  0.12910128467125048  0.1681057157528016  1.0000
  C   C20       1.0  0.3723736113892287  0.8709225681008235  0.831754947198796  1.0000
  C   C21       1.0  0.962438066389204  0.6801206186946445  0.6248523673540091  1.0000
  C   C22       1.0  0.2671780599196082  0.31987829431426457  0.3750951842049233  1.0000
  C   C23       1.0  0.39256550661414724  0.819866211208911  0.12484670246448795  1.0000
  C   C24       1.0  0.33703937084411717  0.1801306026542306  0.8751010310927825  1.0000
  C   C25       1.0  0.9126883034889844  0.2906816219480035  0.7560955849540959  1.0000
  C   C26       1.0  0.9596631748370115  0.7091638968191418  0.24367074219607318  1.0000
  C   C27       1.0  0.9533646087405356  0.2093188687093033  0.256101281014196  1.0000
  C   C28       1.0  0.41882032043098844  0.7908319656600115  0.7436865264175195  1.0000
  C   C29       1.0  0.9571875401829715  0.1385615475947901  0.887659613913165  1.0000
  C   C30       1.0  0.9836999927965311  0.8612052961812181  0.11207071587282505  1.0000
  C   C31       1.0  0.8457467284638226  0.36144551155179994  0.3876626256172243  1.0000
  C   C32       1.0  0.5949027265897512  0.6387997376350681  0.612075406504445  1.0000
  C   C33       1.0  0.9962200701966284  0.21693718379124496  0.8105010472968173  1.0000
  C   C34       1.0  0.02408839376243329  0.7826846865296628  0.1891145051225322  1.0000
  C   C35       1.0  0.963151425340058  0.283062229091847  0.31051035093320667  1.0000
  C   C36       1.0  0.5567620057288779  0.7173163033972116  0.689126189000092  1.0000
  C   C37       1.0  0.9145458373723728  0.7590149066391804  0.7140801416618244  1.0000
  C   C38       1.0  0.387528020205103  0.24078546940884846  0.2860768431432206  1.0000
  C   C39       1.0  0.42355936205922284  0.7409747615581068  0.21407757481929218  1.0000
  C   C40       1.0  0.3783026980124048  0.2592102626695691  0.7860749421614415  1.0000
  C   C41       1.0  0.7792932527958673  0.8444079742731315  0.7596141053937514  1.0000
  C   C42       1.0  0.38329417694464507  0.15540097768714392  0.24044337177545563  1.0000
  C   C43       1.0  0.37369608437354884  0.6555850342244439  0.25961536344514247  1.0000
  C   C44       1.0  0.2886895135125938  0.34459864940837537  0.7404444162457153  1.0000
  C   C45       1.0  0.7397425919809065  0.9118990756070531  0.8454549801760718  1.0000
  C   C46       1.0  0.4971741521402037  0.087925015008004  0.15465398989820048  1.0000
  C   C47       1.0  0.40162595216303754  0.5880958749104791  0.34545862235142266  1.0000
  C   C48       1.0  0.3350858519351405  0.4120822125653659  0.6546568479601761  1.0000
  N   N1        1.0  0.8404262864647978  0.1319488995515599  0.9135236143730765  1.0000
  N   N2        1.0  0.8858851893303383  0.8681151867177591  0.08642783171897132  1.0000
  N   N3        1.0  0.7223720454785366  0.3680561997106508  0.41352662331145496  1.0000
  N   N4        1.0  0.5039992593908239  0.6318903943968408  0.5864289737292054  1.0000
  N   N5        1.0  0.8268166735391136  0.897114473680837  0.8877952785619172  1.0000
  N   N6        1.0  0.6117534042913917  0.1027602368532214  0.11244414351334332  1.0000
  N   N7        1.0  0.47391100106769124  0.6028870836751564  0.38779928287567594  1.0000
  N   N8        1.0  0.464500082266504  0.39725057133289005  0.612451612690279  1.0000
  O   O1        1.0  0.09006485743461226  0.6162550028350963  0.5756133354556283  1.0000
  O   O2        1.0  0.2816758285982461  0.3837149340457485  0.42439792058071646  1.0000
  O   O3        1.0  0.45632607445382706  0.8837369204819581  0.07561577555143356  1.0000
  O   O4        1.0  0.41537656332654643  0.11629731954831607  0.9244023147837483  1.0000
  O   O5        1.0  0.8892999753489331  0.4198429377394888  0.607013907514421  1.0000
  O   O6        1.0  0.9162161717190358  0.5802155984704882  0.3928784070616798  1.0000
  O   O7        1.0  0.059141570163333816  0.08014583487482699  0.10702600317733871  1.0000
  O   O8        1.0  0.24641992940190974  0.9197801929425324  0.8928924993744329  1.0000
  O   O9        1.0  0.055524209467861935  0.38740510175558984  0.6545013536168369  1.0000
  O   O10       1.0  0.09741369107384662  0.6127078762857252  0.34544480263379995  1.0000
  O   O11       1.0  0.19292389379878472  0.11259381052123978  0.15451406660439906  1.0000
  O   O12       1.0  0.4601115356711388  0.887294086270643  0.8454577009267936  1.0000
  O   O13       1.0  0.8748937906065918  0.6738649248546906  0.6021641682791451  1.0000
  O   O14       1.0  0.15066901117872086  0.3263664198274866  0.3975659595581646  1.0000
  O   O15       1.0  0.29876768100157164  0.8261216613476561  0.10215390190383998  1.0000
  O   O16       1.0  0.22701177058261388  0.1736442084798711  0.8975810061334216  1.0000
