data_image0
_chemical_formula_structural       Cu2H16C14S2N8Cl2
_chemical_formula_sum              "Cu2 H16 C14 S2 N8 Cl2"
_cell_length_a       8.493389317170621
_cell_length_b       8.094212626822465
_cell_length_c       11.39039692353208
_cell_angle_alpha    41.8700347949765
_cell_angle_beta     75.9228241047891
_cell_angle_gamma    78.94799369866128

_space_group_name_H-M_alt    "P 1"
_space_group_IT_number       1

loop_
  _space_group_symop_operation_xyz
  'x, y, z'

loop_
  _atom_site_type_symbol
  _atom_site_label
  _atom_site_symmetry_multiplicity
  _atom_site_fract_x
  _atom_site_fract_y
  _atom_site_fract_z
  _atom_site_occupancy
  Cu  Cu1       1.0  0.923135782901042  0.29179468188324625  0.08298127624653515  1.0000
  Cu  Cu2       1.0  0.07687087619081721  0.7082193718176554  0.917009599480444  1.0000
  H   H1        1.0  0.29851147889359453  0.10174164838361578  0.8665102097729616  1.0000
  H   H2        1.0  0.7014777980536665  0.8982587687220447  0.13349234188552103  1.0000
  H   H3        1.0  0.1761344520781378  0.08223857908019029  0.0287993139566254  1.0000
  H   H4        1.0  0.8238604750019152  0.9177692057376561  0.971202129371882  1.0000
  H   H5        1.0  0.09697744048961002  0.6066666981929032  0.5133232905419332  1.0000
  H   H6        1.0  0.9030227306550815  0.3933341468604468  0.4866725540536833  1.0000
  H   H7        1.0  0.23815818612106193  0.6211758291987551  0.318791576038201  1.0000
  H   H8        1.0  0.7618412449179675  0.37881752094546073  0.6812080259041264  1.0000
  H   H9        1.0  0.39122652051259615  0.6865227135958849  0.0863443285642303  1.0000
  H   H10       1.0  0.6087699483087121  0.3134602761252836  0.9136643683406546  1.0000
  H   H11       1.0  0.638380406816765  0.6084108151691864  0.9611824087952244  1.0000
  H   H12       1.0  0.3616181477813853  0.39157705836498746  0.03881912073828885  1.0000
  H   H13       1.0  0.8013668980859664  0.052468921584981836  0.44996235851676386  1.0000
  H   H14       1.0  0.1986384171297999  0.9475281239985595  0.5500378616591629  1.0000
  H   H15       1.0  0.5675734363694571  0.11890196436648645  0.592589940752198  1.0000
  H   H16       1.0  0.4324372183347975  0.8810879737997226  0.4074144486201518  1.0000
  C   C1        1.0  0.10859311731658045  0.3395579417788781  0.7822384816129853  1.0000
  C   C2        1.0  0.8914090589246372  0.6604507452195066  0.21776113639820235  1.0000
  C   C3        1.0  0.3169590243981447  0.46950404845454585  0.41603559808529406  1.0000
  C   C4        1.0  0.683037250637952  0.530499638946246  0.5839525640972952  1.0000
  C   C5        1.0  0.45797100236409705  0.4100478030886593  0.3508611444611275  1.0000
  C   C6        1.0  0.542031273380914  0.5899396107224817  0.6491443047824105  1.0000
  C   C7        1.0  0.48059071238915163  0.5463279652025149  0.17085869771674558  1.0000
  C   C8        1.0  0.5194053474264848  0.4536610794159157  0.8291445099215553  1.0000
  C   C9        1.0  0.6157327324164825  0.5001572865964263  0.10138844284126243  1.0000
  C   C10       1.0  0.3842739864102285  0.4998366014030112  0.8986112667312225  1.0000
  C   C11       1.0  0.707107500059472  0.19069845691148404  0.37449812934778476  1.0000
  C   C12       1.0  0.2929011272974833  0.8093041838462868  0.62550052127159  1.0000
  C   C13       1.0  0.5762949304450303  0.22829087913095245  0.4531708469724833  1.0000
  C   C14       1.0  0.423707968383681  0.7717058657257425  0.5468299816425597  1.0000
  S   S1        1.0  0.9447976598391037  0.46671197378690005  0.8146196423759307  1.0000
  S   S2        1.0  0.055201808031355895  0.5333006312454742  0.18537595808957968  1.0000
  N   N1        1.0  0.19971171680276004  0.15386490226265437  0.9047519871348157  1.0000
  N   N2        1.0  0.80027568844568  0.846146016972824  0.09524762199995973  1.0000
  N   N3        1.0  0.1496083494931213  0.437884630687627  0.6168101332626674  1.0000
  N   N4        1.0  0.8503946657049042  0.5621291540856603  0.3831806886492401  1.0000
  N   N5        1.0  0.2835951446468954  0.3538293602314937  0.5800158405438083  1.0000
  N   N6        1.0  0.7163996274373333  0.6461617489950839  0.4199936765403648  1.0000
  N   N7        1.0  0.7282096691268833  0.3240882126106825  0.20058455984580081  1.0000
  N   N8        1.0  0.27179619077712397  0.675919635829523  0.7994121093673098  1.0000
  Cl  Cl1       1.0  0.10891461873331562  0.0029688535274629913  0.263417449415229  1.0000
  Cl  Cl2       1.0  0.891084849137151  0.9970437515049114  0.736578151050281  1.0000
