data_image0
_chemical_formula_structural       CoH16PdC12N2Cl2O8
_chemical_formula_sum              "Co1 H16 Pd1 C12 N2 Cl2 O8"
_cell_length_a       5.471964978610708
_cell_length_b       6.738784376953179
_cell_length_c       12.376897911844171
_cell_angle_alpha    102.62769373990938
_cell_angle_beta     98.30924511309888
_cell_angle_gamma    94.45250009350363

_space_group_name_H-M_alt    "P 1"
_space_group_IT_number       1

loop_
  _space_group_symop_operation_xyz
  'x, y, z'

loop_
  _atom_site_type_symbol
  _atom_site_label
  _atom_site_symmetry_multiplicity
  _atom_site_fract_x
  _atom_site_fract_y
  _atom_site_fract_z
  _atom_site_occupancy
  Co  Co1       1.0  3.384805047801537e-06  0.5000008795405009  0.4999993786226469  1.0000
  H   H1        1.0  0.8301413296314452  0.6574894602646496  0.2556755362882228  1.0000
  H   H2        1.0  0.16984729859532874  0.34251172684967196  0.7443332987838006  1.0000
  H   H3        1.0  0.44623260092944134  0.18440708441790574  0.2298791553094972  1.0000
  H   H4        1.0  0.553776215715601  0.8155952217521828  0.7701156712847066  1.0000
  H   H5        1.0  0.11752867970184157  0.9509071257579367  0.08927313348051058  1.0000
  H   H6        1.0  0.882478548814916  0.0490967421587101  0.9107225879620273  1.0000
  H   H7        1.0  0.4893844332947949  0.4442040722362464  0.1174911024742258  1.0000
  H   H8        1.0  0.5106029701249072  0.5557894465727102  0.8825151480868739  1.0000
  H   H9        1.0  0.23743252284423022  0.18795943733562845  0.4730987265823714  1.0000
  H   H10       1.0  0.762572489479119  0.8120414425258174  0.5269013609885462  1.0000
  H   H11       1.0  0.46568617797468187  0.3536569282259591  0.5512886371311083  1.0000
  H   H12       1.0  0.5343259527580315  0.6463423204915985  0.44871087974912177  1.0000
  H   H13       1.0  0.15829789644056544  0.533650320127954  0.3087639871330055  1.0000
  H   H14       1.0  0.841703615411916  0.4663521115922009  0.6912336472423489  1.0000
  H   H15       1.0  0.14492477667327813  0.7623411264974108  0.3769833123013768  1.0000
  H   H16       1.0  0.8550767524080953  0.23766131347781547  0.6230151320718136  1.0000
  Pd  Pd1       1.0  0.9999964398453544  0.5000019852182831  9.480817268978735e-07  1.0000
  C   C1        1.0  0.6676165561942042  0.9405965067058234  0.2548742537675608  1.0000
  C   C2        1.0  0.3323845828918977  0.05940291382668761  0.7451278547887199  1.0000
  C   C3        1.0  0.2791330012115125  0.8924081633558599  0.1280408203907513  1.0000
  C   C4        1.0  0.7208680861879202  0.10759123241142989  0.8719588581720146  1.0000
  C   C5        1.0  0.6786541052699846  0.7306622927619557  0.22078277843674948  1.0000
  C   C6        1.0  0.32132998406203944  0.269334283499532  0.779218781838324  1.0000
  C   C7        1.0  0.48759568414251225  0.6088270517235517  0.1433604630991567  1.0000
  C   C8        1.0  0.5124021095327294  0.3911739949633385  0.8566464822420983  1.0000
  C   C9        1.0  0.4637205368267843  0.021745231857430304  0.2059809781501443  1.0000
  C   C10       1.0  0.5362728698791273  0.9782526930602914  0.794014835308026  1.0000
  C   C11       1.0  0.8658191980323764  0.07534119729198352  0.34305371960521563  1.0000
  C   C12       1.0  0.13417657992694382  0.9246597899766014  0.6569450177051194  1.0000
  N   N1        1.0  0.2892186285328577  0.6885338778881761  0.09873875609245178  1.0000
  N   N2        1.0  0.7107751196162441  0.3114656269190306  0.901262110255793  1.0000
  Cl  Cl1       1.0  0.9884426664487408  0.3198958373751992  0.1387150474502263  1.0000
  Cl  Cl2       1.0  0.011557053663381051  0.6801066422426202  0.8612849088660894  1.0000
  O   O1        1.0  0.8172348603212357  0.25736318157851196  0.3792739741919604  1.0000
  O   O2        1.0  0.18276842604272045  0.7426391939889001  0.6207205282445897  1.0000
  O   O3        1.0  0.06419958265344411  0.0015991393782783998  0.3751303269362083  1.0000
  O   O4        1.0  0.935799695776744  0.9984002960316046  0.6248708635696829  1.0000
  O   O5        1.0  0.2002628322770335  0.6261629451488558  0.3842735767555893  1.0000
  O   O6        1.0  0.7997425872704722  0.37384096241038384  0.6157236566300739  1.0000
  O   O7        1.0  0.28360488698821473  0.32326687845775837  0.5288252447590196  1.0000
  O   O8        1.0  0.7164043541098692  0.6767384636651954  0.47116753764776576  1.0000
