data_image0
_chemical_formula_structural       Zr6H29C50O37F
_chemical_formula_sum              "Zr6 H29 C50 O37 F1"
_cell_length_a       14.778873586470391
_cell_length_b       14.787475201680522
_cell_length_c       14.802982550054987
_cell_angle_alpha    60.13161855325827
_cell_angle_beta     59.945470738055484
_cell_angle_gamma    60.05332769118368

_space_group_name_H-M_alt    "P 1"
_space_group_IT_number       1

loop_
  _space_group_symop_operation_xyz
  'x, y, z'

loop_
  _atom_site_type_symbol
  _atom_site_label
  _atom_site_symmetry_multiplicity
  _atom_site_fract_x
  _atom_site_fract_y
  _atom_site_fract_z
  _atom_site_occupancy
  Zr  Zr1       1.0  0.87759018453972  0.8815240697799637  0.6185901484461952  1.0000
  Zr  Zr2       1.0  0.117669279119795  0.11824031586166231  0.38162145410586135  1.0000
  Zr  Zr3       1.0  0.11642032389245564  0.8813325990928645  0.6189608113906573  1.0000
  Zr  Zr4       1.0  0.8784726323188393  0.12086743190180711  0.3789952176733634  1.0000
  Zr  Zr5       1.0  0.11662331592681595  0.8815923261747685  0.37944331041644136  1.0000
  Zr  Zr6       1.0  0.8780412753863941  0.12089468238159622  0.6181115024284908  1.0000
  H   H1        1.0  0.09196686525702073  0.719143471638546  0.5928422672484003  1.0000
  H   H2        1.0  0.09353823659670722  0.09382810747870708  0.21765856168254064  1.0000
  H   H3        1.0  0.09249432525982125  0.09447195119061999  0.5936075749127597  1.0000
  H   H4        1.0  0.7157568925350188  0.095330612153333  0.5931739807278547  1.0000
  H   H5        1.0  0.8494571660306534  0.587658741939137  0.64437093069877  1.0000
  H   H6        1.0  0.1420180945320056  0.5885828970989806  0.35332967206823446  1.0000
  H   H7        1.0  0.8522916460891421  0.41737021036327354  0.6425627996157247  1.0000
  H   H8        1.0  0.5876408882825926  0.8504140134183371  0.9177206594904703  1.0000
  H   H9        1.0  0.5899131134932529  0.14092373504045935  0.9177366362037631  1.0000
  H   H10       1.0  0.41817935436893056  0.8520070768178273  0.08792385171012972  1.0000
  H   H11       1.0  0.14198602653576825  0.8523637286119624  0.08582174821260219  1.0000
  H   H12       1.0  0.8502089338596052  0.1434486453875719  0.08913219010032235  1.0000
  H   H13       1.0  0.14005516076669233  0.8554356616514127  0.9157813474348374  1.0000
  H   H14       1.0  0.5865482761065336  0.42034692375485583  0.6412282997680661  1.0000
  H   H15       1.0  0.5888143581508274  0.4168412381738022  0.35058012089004353  1.0000
  H   H16       1.0  0.4171037530367627  0.589963083438974  0.6387292575826677  1.0000
  H   H17       1.0  0.14137850415281147  0.5900693731312713  0.9167727377505912  1.0000
  H   H18       1.0  0.7418021049577277  0.6249522832927212  0.9627411298778483  1.0000
  H   H19       1.0  0.8292630366091909  0.5396012771124674  0.8773527101861092  1.0000
  H   H20       1.0  0.8332842314994267  0.36965230084398104  0.04735155455750803  1.0000
  H   H21       1.0  0.7461339304960857  0.4548354058012905  0.13277528562978338  1.0000
  H   H22       1.0  0.5861739565261813  0.14413251023002965  0.3498212639160769  1.0000
  H   H23       1.0  0.5883498041194669  0.853171347479382  0.6404911888513778  1.0000
  H   H24       1.0  0.41632213470588647  0.14174224398248467  0.352570763872933  1.0000
  H   H25       1.0  0.14893071484800657  0.3509919747690374  0.3444521395386246  1.0000
  H   H26       1.0  0.34992074979183485  0.14956809406867683  0.15511628001259226  1.0000
  H   H27       1.0  0.8437410402419019  0.15155294092227903  0.8495150403172289  1.0000
  H   H28       1.0  0.3503503467750517  0.6561854961185462  0.3428772490634202  1.0000
  H   H29       1.0  0.3487495744402694  0.8458300458985872  0.6485634132599074  1.0000
  C   C1        1.0  0.9950194126907231  0.6995533223746976  0.4975022432829021  1.0000
  C   C2        1.0  0.3085524636825381  0.9952951257434108  0.19735484677457998  1.0000
  C   C3        1.0  0.9955529147162846  0.308471932345611  0.4988649392706035  1.0000
  C   C4        1.0  0.6984696779303332  0.9968514879103483  0.8064063652728636  1.0000
  C   C5        1.0  0.9949805127451011  0.7014259485315933  0.8051047988783254  1.0000
  C   C6        1.0  0.697782890002742  0.9984772192039768  0.49502183048792847  1.0000
  C   C7        1.0  0.9985760495482763  0.30567246779000334  0.20019050315154607  1.0000
  C   C8        1.0  0.3073441713409576  0.998259974804839  0.4958470473153655  1.0000
  C   C9        1.0  0.307783395944078  0.6982221284365339  0.4959439040010238  1.0000
  C   C10       1.0  0.9962287352535382  0.998405661672933  0.8076084888996531  1.0000
  C   C11       1.0  0.6982358553796145  0.3081556687828451  0.4957875051774536  1.0000
  C   C12       1.0  0.9957947634792673  0.9977101286627599  0.19814795147750874  1.0000
  C   C13       1.0  0.9971759062798428  0.40806143509406195  0.4975788143603592  1.0000
  C   C14       1.0  0.9956008314888504  0.5978727424519615  0.4984922726117346  1.0000
  C   C15       1.0  0.08046074647634771  0.4566142301812731  0.4148258399064844  1.0000
  C   C16       1.0  0.9132578848094252  0.549947274715322  0.581252393977337  1.0000
  C   C17       1.0  0.07837075391731922  0.5514751264829628  0.41678691885897484  1.0000
  C   C18       1.0  0.9149228838008767  0.45621307089332663  0.5799167732764517  1.0000
  C   C19       1.0  0.4089508822373559  0.9963768670210411  0.09809339510365321  1.0000
  C   C20       1.0  0.5985690834990008  0.995545712186896  0.9084126084462342  1.0000
  C   C21       1.0  0.4577049467796782  0.07940052237178455  0.04939641662383549  1.0000
  C   C22       1.0  0.5506825954706899  0.9132293092432775  0.9557623787120664  1.0000
  C   C23       1.0  0.5527525148223446  0.0774061129766182  0.954715186200751  1.0000
  C   C24       1.0  0.45714919203638255  0.9144450495516026  0.04947077815059923  1.0000
  C   C25       1.0  0.9949740986045652  0.9998651516974062  0.907242766271352  1.0000
  C   C26       1.0  0.9958979320796926  0.9978369122777194  0.0971417304042317  1.0000
  C   C27       1.0  0.9122370469024117  0.08286425815424515  0.956233553806733  1.0000
  C   C28       1.0  0.078574605208139  0.9158187737772183  0.048785906946136375  1.0000
  C   C29       1.0  0.9139680963568252  0.08037913707050126  0.051270390203391934  1.0000
  C   C30       1.0  0.07720408691215391  0.9177269379685882  0.9550339403105641  1.0000
  C   C31       1.0  0.40816804822455294  0.5989643795085227  0.49399099628715243  1.0000
  C   C32       1.0  0.5976275623289663  0.40942832152276043  0.4954577099318129  1.0000
  C   C33       1.0  0.4572194407464421  0.5496867500425039  0.411271348066066  1.0000
  C   C34       1.0  0.5495677722605874  0.4574756244621411  0.577758153308153  1.0000
  C   C35       1.0  0.5518036212460303  0.45485941850303385  0.41346986693779547  1.0000
  C   C36       1.0  0.45607326929369646  0.5510352984251979  0.5761369226808383  1.0000
  C   C37       1.0  0.9951384485014073  0.6013612447317201  0.9053342682329414  1.0000
  C   C38       1.0  0.9992090614874768  0.4057659643301291  0.10025374138773906  1.0000
  C   C39       1.0  0.91672569280054  0.5492004072652958  0.9561295343817945  1.0000
  C   C40       1.0  0.07859571675890455  0.45960153204241294  0.04657511378751166  1.0000
  C   C41       1.0  0.9192747510730186  0.45502141175285954  0.05005464469334687  1.0000
  C   C42       1.0  0.07734322683069166  0.5536378874349098  0.9530988128649157  1.0000
  C   C43       1.0  0.815430461913571  0.5517633747921806  0.9512861768941009  1.0000
  C   C44       1.0  0.818082928358528  0.44508758039346913  0.057873790535431416  1.0000
  C   C45       1.0  0.4072293800315664  0.9968460184446358  0.4969065837249502  1.0000
  C   C46       1.0  0.5968984459819067  0.9982917433840228  0.4949723186434198  1.0000
  C   C47       1.0  0.4559323524993387  0.9143080234532235  0.5797246178095249  1.0000
  C   C48       1.0  0.5489363241513061  0.08070140268460331  0.4130599081624808  1.0000
  C   C49       1.0  0.5508955665188111  0.9163034752565548  0.5773170929202465  1.0000
  C   C50       1.0  0.4552387519516401  0.07913764264987581  0.41483116158418903  1.0000
  O   O1        1.0  0.9182443936905497  0.7393701571237512  0.5743205583507346  1.0000
  O   O2        1.0  0.2669136323298531  0.07352141761750626  0.2379726323769376  1.0000
  O   O3        1.0  0.07394478992567599  0.26677824687306634  0.4217498454014931  1.0000
  O   O4        1.0  0.7368601008193777  0.9214245907599832  0.7653054273355621  1.0000
  O   O5        1.0  0.07235506315491597  0.7409719385828026  0.76465799622342  1.0000
  O   O6        1.0  0.7370826389069903  0.07572287604939007  0.4189943542521206  1.0000
  O   O7        1.0  0.9213747689023107  0.2671288074801054  0.2373381103379019  1.0000
  O   O8        1.0  0.26555950044674176  0.9212647969136823  0.5740025278187133  1.0000
  O   O9        1.0  0.26611941250813925  0.7379537449007999  0.4192014499132313  1.0000
  O   O10       1.0  0.9189039911809755  0.07652266663698251  0.7664942230047416  1.0000
  O   O11       1.0  0.7371588418296254  0.26777536939201213  0.5732470496019958  1.0000
  O   O12       1.0  0.07264323084273606  0.9210651471340656  0.2377285303671286  1.0000
  O   O13       1.0  0.07224010450931223  0.922948195464173  0.7661754058070399  1.0000
  O   O14       1.0  0.7379594394270936  0.26775516207265326  0.4194811576731609  1.0000
  O   O15       1.0  0.9198853412781673  0.07515213145024524  0.237436088592659  1.0000
  O   O16       1.0  0.26617275364817783  0.7390015408874647  0.5720387593540508  1.0000
  O   O17       1.0  0.918454322843729  0.7396261542655936  0.7658352064587534  1.0000
  O   O18       1.0  0.2659483576977095  0.07417421519566146  0.4206750657577203  1.0000
  O   O19       1.0  0.0745163662183757  0.26408198256273613  0.2414754997715249  1.0000
  O   O20       1.0  0.7371377476794406  0.9223440526013531  0.5719571450303818  1.0000
  O   O21       1.0  0.7379566383077999  0.074127861781413  0.7659322743855341  1.0000
  O   O22       1.0  0.07202399829717608  0.7393287645668067  0.42079807667580843  1.0000
  O   O23       1.0  0.2667776953735197  0.9203256255683103  0.2374797472130082  1.0000
  O   O24       1.0  0.9197406851281186  0.2674601250955035  0.5746932746997402  1.0000
  O   O25       1.0  0.7961418399070722  0.06857392540702967  0.5662091756786012  1.0000
  O   O26       1.0  0.06553695771867746  0.06765877378127522  0.5670893236856075  1.0000
  O   O27       1.0  0.06658271475797051  0.06704653652125354  0.297827567374462  1.0000
  O   O28       1.0  0.06545822174302872  0.7993110258692866  0.566125714163924  1.0000
  O   O29       1.0  0.14805165142202964  0.9500237754564511  0.44974085358829546  1.0000
  O   O30       1.0  0.9485498160396085  0.9516859301413804  0.44950684361432264  1.0000
  O   O31       1.0  0.9489239080023282  0.14940706410798993  0.4499214513989358  1.0000
  O   O32       1.0  0.9481958587605914  0.9516959145039934  0.6478825433119794  1.0000
  O   O33       1.0  0.16232131374923126  0.4162811572432333  0.33319711444711697  1.0000
  O   O34       1.0  0.41688290316293564  0.16148532574042207  0.08933209681462266  1.0000
  O   O35       1.0  0.8311484087371994  0.16500624348525822  0.9154133792881255  1.0000
  O   O36       1.0  0.4168563571563764  0.589972022254308  0.32971618606250536  1.0000
  O   O37       1.0  0.41492850128727776  0.833111555680013  0.6616303078915066  1.0000
  F   F1        1.0  0.16180227805628514  0.4196498214254447  0.08563690716322005  1.0000
