data_image0
_chemical_formula_structural       Zr6H52C96O80
_chemical_formula_sum              "Zr6 H52 C96 O80"
_cell_length_a       21.69006057242104
_cell_length_b       21.690660911320155
_cell_length_c       21.690297847304315
_cell_angle_alpha    89.99818754501696
_cell_angle_beta     119.9990263992979
_cell_angle_gamma    60.00012186662853

_space_group_name_H-M_alt    "P 1"
_space_group_IT_number       1

loop_
  _space_group_symop_operation_xyz
  'x, y, z'

loop_
  _atom_site_type_symbol
  _atom_site_label
  _atom_site_symmetry_multiplicity
  _atom_site_fract_x
  _atom_site_fract_y
  _atom_site_fract_z
  _atom_site_occupancy
  Zr  Zr1       1.0  0.9999892561122791  0.5812340233132859  0.08123417640845083  1.0000
  Zr  Zr2       1.0  6.350818118826983e-06  0.4187843244120087  0.9187702449641861  1.0000
  Zr  Zr3       1.0  0.9999941263118188  0.41878077286916254  0.08124438194437995  1.0000
  Zr  Zr4       1.0  1.7852119953299214e-05  0.5812299351627673  0.918783751248931  1.0000
  Zr  Zr5       1.0  0.16245042124420914  0.418768224821072  0.08122956607836326  1.0000
  Zr  Zr6       1.0  0.8375320653729406  0.5812250578719826  0.9187820618216946  1.0000
  H   H1        1.0  0.12810811659132076  0.4359411152711345  0.19215196172825694  1.0000
  H   H2        1.0  0.1280975175427342  0.4359544705061182  0.9359476456821623  1.0000
  H   H3        1.0  0.8718925247101269  0.4359579090099359  0.9359518655460164  1.0000
  H   H4        1.0  0.8719044611131894  0.6921517645255549  0.9359566485766351  1.0000
  H   H5        1.0  0.13303676258481534  0.6054439174889908  0.23668570917924808  1.0000
  H   H6        1.0  0.3421824788522657  0.39635758743116156  0.23667241953596366  1.0000
  H   H7        1.0  0.55271842070119  0.3954184762975644  0.4483064118828467  1.0000
  H   H8        1.0  0.34368286997015923  0.6043616875733023  0.4483434724061082  1.0000
  H   H9        1.0  0.44727630884365516  0.6044217629576422  0.5518795103176399  1.0000
  H   H10       1.0  0.6562949493117927  0.39538755466733017  0.5519192694928774  1.0000
  H   H11       1.0  0.8669614972850609  0.3963940629209193  0.7614721745705281  1.0000
  H   H12       1.0  0.6578266518386895  0.6055296433204945  0.7614517287480851  1.0000
  H   H13       1.0  0.8669635616616417  0.7366856969806291  0.10544674896664204  1.0000
  H   H14       1.0  0.657820202122636  0.7366667382563533  0.8963654085426567  1.0000
  H   H15       1.0  0.44728321026804746  0.9483053454565393  0.8954188714933551  1.0000
  H   H16       1.0  0.656318425954538  0.9483451954422719  0.10436157718641671  1.0000
  H   H17       1.0  0.5527235365688412  0.05187608312968454  0.10442221636310474  1.0000
  H   H18       1.0  0.3437037420275857  0.05191685782423127  0.8953904732460882  1.0000
  H   H19       1.0  0.13303826672333255  0.26146970870237835  0.8963950146214189  1.0000
  H   H20       1.0  0.3421717504676352  0.2614566717353171  0.10552181430111321  1.0000
  H   H21       1.0  0.3421239519426678  0.3963821627227447  0.10547031215230628  1.0000
  H   H22       1.0  0.13299730103715757  0.6055486365919335  0.8963726119646507  1.0000
  H   H23       1.0  0.3436813628161773  0.6044535795993511  0.8954179423150989  1.0000
  H   H24       1.0  0.5526890412128935  0.3953880578267572  0.10437408603236517  1.0000
  H   H25       1.0  0.6562856715113128  0.39543571510797904  0.10443989140564715  1.0000
  H   H26       1.0  0.4472791823331832  0.6044093235008389  0.8953945906574814  1.0000
  H   H27       1.0  0.6578409356543206  0.6055097741693486  0.89638484959908  1.0000
  H   H28       1.0  0.866965148727054  0.39640294859069064  0.10553206119895003  1.0000
  H   H29       1.0  0.6578672047222439  0.7367150035073209  0.7615455227584317  1.0000
  H   H30       1.0  0.8669934042363109  0.7366760853134409  0.7614977135864434  1.0000
  H   H31       1.0  0.6563203096859456  0.9483062305226113  0.5519064013782896  1.0000
  H   H32       1.0  0.44730562414837766  0.9483812395927629  0.5519838511614097  1.0000
  H   H33       1.0  0.3437145622742008  0.05190047849374933  0.4483343525823074  1.0000
  H   H34       1.0  0.5527176132992153  0.05192165464653435  0.4483429550769316  1.0000
  H   H35       1.0  0.34215796525944603  0.2614645100638882  0.23665951528487034  1.0000
  H   H36       1.0  0.13303606671521354  0.2614675283306624  0.23666588788682927  1.0000
  H   H37       1.0  0.9982053421637717  0.39634808112406034  0.23669175162525866  1.0000
  H   H38       1.0  0.9981158504541554  0.6055160386051811  0.23664316020369106  1.0000
  H   H39       1.0  0.00016800038822151927  0.6044311207939401  0.44827806301743334  1.0000
  H   H40       1.0  0.0003013124448472249  0.3953566360490512  0.44835466676785524  1.0000
  H   H41       1.0  0.00017938170645952355  0.3954072688126046  0.5518806377993428  1.0000
  H   H42       1.0  0.0002316376138226391  0.6043842040163411  0.5518964327219748  1.0000
  H   H43       1.0  0.9981089664308768  0.6055041675605395  0.7614522702226763  1.0000
  H   H44       1.0  0.9981073074982304  0.3963891587518234  0.7614588366749897  1.0000
  H   H45       1.0  0.0017991837254599252  0.7367162751023882  0.8963851892481216  1.0000
  H   H46       1.0  0.0018746531709085412  0.7366630597061601  0.10554893050144899  1.0000
  H   H47       1.0  0.9998311032295673  0.9482868444882302  0.10447956566274966  1.0000
  H   H48       1.0  0.9996968723082986  0.9483824488904347  0.8953987911889951  1.0000
  H   H49       1.0  0.9998190528668688  0.05189244733473692  0.8954373178310464  1.0000
  H   H50       1.0  0.9997673996110095  0.051933102761211006  0.10442199039350421  1.0000
  H   H51       1.0  0.0018801873748728341  0.26148368414922635  0.10552557596761149  1.0000
  H   H52       1.0  0.001891897357367677  0.26147010155378325  0.8964038407034636  1.0000
  C   C1        1.0  0.20990369423204672  0.5014601891146171  0.2084169180126948  1.0000
  C   C2        1.0  0.2098969292255575  0.28862201539567417  0.0015013727345304566  1.0000
  C   C3        1.0  0.7901037948555967  0.5015046894372119  0.7886226125995177  1.0000
  C   C4        1.0  0.7900971724385996  0.7084119960539256  0.001466726720344836  1.0000
  C   C5        1.0  0.9970453771085632  0.501485819516418  0.20840947404379762  1.0000
  C   C6        1.0  0.0029581584394123726  0.7084205017279288  0.0015101547573764316  1.0000
  C   C7        1.0  0.9970149058190857  0.5014973989263326  0.7886137982523992  1.0000
  C   C8        1.0  0.002979221059710817  0.2886337738454827  0.0015035899687987017  1.0000
  C   C9        1.0  0.20989295414860012  0.2886214798980332  0.20841093060211338  1.0000
  C   C10       1.0  0.7901058423756525  0.501500694550707  0.0015028703740468522  1.0000
  C   C11       1.0  0.7901297159558212  0.7084243717482511  0.7886566332505893  1.0000
  C   C12       1.0  0.2098667835723164  0.5015073638162021  0.0014811563204162378  1.0000
  C   C13       1.0  0.27684941940281504  0.5007257127725993  0.2761007494298369  1.0000
  C   C14       1.0  0.25279973251789306  0.557540276927959  0.3096303379931697  1.0000
  C   C15       1.0  0.317641705564583  0.5567898322642861  0.3743815053650296  1.0000
  C   C16       1.0  0.40664290570810374  0.49996880925545634  0.40667819472650274  1.0000
  C   C17       1.0  0.431191875607972  0.4432759299732253  0.3743768573060038  1.0000
  C   C18       1.0  0.36720266822928954  0.4431710628408822  0.309626944010894  1.0000
  C   C19       1.0  0.47164596832917743  0.49987073196661674  0.471793176532266  1.0000
  C   C20       1.0  0.5283380719609241  0.4998807419695693  0.5284791743431753  1.0000
  C   C21       1.0  0.5933462488390474  0.4999958634969131  0.5933739795240097  1.0000
  C   C22       1.0  0.5688057501829745  0.5568404831752646  0.6255273833342371  1.0000
  C   C23       1.0  0.6327972747295336  0.5576087107365879  0.6896082588762128  1.0000
  C   C24       1.0  0.7231530735316128  0.5007855927025131  0.7223961979924809  1.0000
  C   C25       1.0  0.7471931873693977  0.4432118724558549  0.689618733267096  1.0000
  C   C26       1.0  0.6823497213614546  0.4432995736634455  0.6255362985685906  1.0000
  C   C27       1.0  0.7231524104839623  0.7760970239802846  0.0007315339751556789  1.0000
  C   C28       1.0  0.7472008330262128  0.8096299876907977  0.057541815244270815  1.0000
  C   C29       1.0  0.6823597811302025  0.8743827962612868  0.05679169916698608  1.0000
  C   C30       1.0  0.5933584768729433  0.9066785885001281  0.9999701563962589  1.0000
  C   C31       1.0  0.5688102562752849  0.8743751760380715  0.9432783969789895  1.0000
  C   C32       1.0  0.6327988804680873  0.8096219868285316  0.943176083763923  1.0000
  C   C33       1.0  0.5283537786962641  0.9717940366992721  0.9998694994215213  1.0000
  C   C34       1.0  0.47166000588080675  0.028480190495720748  0.9998784161322616  1.0000
  C   C35       1.0  0.4066515173707259  0.0933746366380531  0.9999947423229258  1.0000
  C   C36       1.0  0.4311942358071477  0.1255259961115982  0.056839367327661636  1.0000
  C   C37       1.0  0.36720011912449735  0.18960982684657787  0.057604719576467345  1.0000
  C   C38       1.0  0.276846409009785  0.22239572111067224  0.0007833876709284148  1.0000
  C   C39       1.0  0.2528052062715033  0.18961832504976417  0.9432121491304385  1.0000
  C   C40       1.0  0.3176515301513237  0.1255357836721841  0.9433001349902099  1.0000
  C   C41       1.0  0.27680860633250853  0.500790002358997  0.00075305331132111  1.0000
  C   C42       1.0  0.36716105980103464  0.4432057583495493  0.057564658791747506  1.0000
  C   C43       1.0  0.43115639676433665  0.4433024341083609  0.056808764038969284  1.0000
  C   C44       1.0  0.40661681477719486  0.5000127188180984  0.9999822858571149  1.0000
  C   C45       1.0  0.31761835111316156  0.5568569993156203  0.9432863762158449  1.0000
  C   C46       1.0  0.2527679369681766  0.5576201778269763  0.9431889057335638  1.0000
  C   C47       1.0  0.47163335231643083  0.49992027443514075  0.9998929884440527  1.0000
  C   C48       1.0  0.5283364980048973  0.49991414037783233  0.9999047148226906  1.0000
  C   C49       1.0  0.5933469092573488  0.5000085063937902  3.8042498927740514e-06  1.0000
  C   C50       1.0  0.6823499667207217  0.44331038415203494  0.05684773237917536  1.0000
  C   C51       1.0  0.7471945967080842  0.4432191314845042  0.05760798076815366  1.0000
  C   C52       1.0  0.7231598777731065  0.5007836999096327  0.0007835509356225944  1.0000
  C   C53       1.0  0.6328066885764372  0.5575992633770922  0.9432080797884976  1.0000
  C   C54       1.0  0.5688109609285732  0.5568426278299583  0.9432984099593753  1.0000
  C   C55       1.0  0.7231823433627228  0.7761145859133124  0.7224520646022298  1.0000
  C   C56       1.0  0.6328363756937917  0.8096553165187715  0.6896886720701614  1.0000
  C   C57       1.0  0.5688359586513915  0.874406716139539  0.6255936200971561  1.0000
  C   C58       1.0  0.5933757010317535  0.9066858805651351  0.5934143861260991  1.0000
  C   C59       1.0  0.6823751649174171  0.8743807369732366  0.6255664761051918  1.0000
  C   C60       1.0  0.747224654324036  0.8096322012805928  0.6896653195460373  1.0000
  C   C61       1.0  0.5283679940753461  0.9718033569196507  0.5285125018094661  1.0000
  C   C62       1.0  0.47166492163343315  0.028499259023796256  0.4718149482857895  1.0000
  C   C63       1.0  0.4066519747169081  0.09338494011973351  0.4066830876262627  1.0000
  C   C64       1.0  0.3176507658459756  0.12553907674007556  0.37437905205619865  1.0000
  C   C65       1.0  0.2528039323283267  0.18962153536384815  0.30962051372829075  1.0000
  C   C66       1.0  0.2768405382407266  0.22240241627105206  0.27608496613085265  1.0000
  C   C67       1.0  0.36719153216308353  0.18962113377546794  0.3096134224543974  1.0000
  C   C68       1.0  0.4311891385157126  0.12553925120918308  0.3743725317996436  1.0000
  C   C69       1.0  0.9985179570107477  0.5007515398816552  0.276088498134797  1.0000
  C   C70       1.0  0.9992901195210137  0.44317385917430857  0.3096316946304609  1.0000
  C   C71       1.0  0.9999476343372464  0.4432702538147309  0.3743810530718078  1.0000
  C   C72       1.0  6.397416035517278e-05  0.49997827894225105  0.40666585767827723  1.0000
  C   C73       1.0  0.9999040266748763  0.5568268148612106  0.37435527660785056  1.0000
  C   C74       1.0  0.9992411100621084  0.5575832928344726  0.3096022297329882  1.0000
  C   C75       1.0  0.0002747654966131  0.4998716080419283  0.47178384322078415  1.0000
  C   C76       1.0  0.00026140531916511695  0.49986989351207006  0.5284716063491715  1.0000
  C   C77       1.0  3.4676591745707676e-05  0.4999826656029782  0.5933655140887382  1.0000
  C   C78       1.0  0.9998817273273558  0.443290606247743  0.6255255497326074  1.0000
  C   C79       1.0  0.9992088262995509  0.44320439405959167  0.6896090799234427  1.0000
  C   C80       1.0  0.9984600080041517  0.5007716268486532  0.7223894176909764  1.0000
  C   C81       1.0  0.9992116506391399  0.5575884080278614  0.689604909745114  1.0000
  C   C82       1.0  0.9998864210864652  0.5568261565100131  0.62552210035561  1.0000
  C   C83       1.0  0.0015001117085375955  0.7760985598012198  0.0007905159094789345  1.0000
  C   C84       1.0  0.0007168112061038516  0.8096556251594862  0.9432077718182866  1.0000
  C   C85       1.0  5.3381775053944394e-05  0.8744090024329549  0.9433069651406996  1.0000
  C   C86       1.0  0.9999434565148138  0.9066874704640712  2.268997050712391e-05  1.0000
  C   C87       1.0  0.00010090623610652692  0.8743691750787548  0.056867111409090385  1.0000
  C   C88       1.0  0.0007687766591716266  0.8096133846166751  0.05762215877576444  1.0000
  C   C89       1.0  0.9997391081022826  0.9717923505238562  0.9999296616287193  1.0000
  C   C90       1.0  0.9997555672465168  0.02848769327695068  0.9999269001977777  1.0000
  C   C91       1.0  0.9999765923883288  0.09338008496027331  2.3755132261178313e-05  1.0000
  C   C92       1.0  0.00011900300926743716  0.12553508672190358  0.9433233494018437  1.0000
  C   C93       1.0  0.0007876792829080186  0.18962177089981927  0.9432233022262791  1.0000
  C   C94       1.0  0.0015379239945758735  0.22240691394888049  0.0007920052697016425  1.0000
  C   C95       1.0  0.0007875885002449021  0.18963244586688427  0.057614995908018274  1.0000
  C   C96       1.0  0.0001168657667634193  0.125546409818341  0.05685811503199288  1.0000
  O   O1        1.0  0.12815371093808642  0.5537719146067914  0.17874404138376576  1.0000
  O   O2        1.0  0.12814700084683037  0.318066127391397  0.9494178927859452  1.0000
  O   O3        1.0  0.8718517156248494  0.44942013679680304  0.8180653128716812  1.0000
  O   O4        1.0  0.8718485144969464  0.6787327504755183  0.05378285296082906  1.0000
  O   O5        1.0  0.9968116445100534  0.44940801037738254  0.1787409929027104  1.0000
  O   O6        1.0  0.0031933719308268856  0.6787527583781737  0.9494345916013955  1.0000
  O   O7        1.0  0.9967923646447687  0.5537990842700894  0.818055258175356  1.0000
  O   O8        1.0  0.0031996840441408355  0.31807582867726586  0.05380926061722849  1.0000
  O   O9        1.0  0.23253282070152184  0.31805908298726143  0.1787399828770546  1.0000
  O   O10       1.0  0.7674675856754545  0.5537979017385766  0.9494121685004157  1.0000
  O   O11       1.0  0.7674866176311569  0.6787448038511883  0.8180809791105403  1.0000
  O   O12       1.0  0.23250561455253652  0.44942502320749605  0.05378334789563144  1.0000
  O   O13       1.0  0.8718559934589365  0.4494197109970131  0.05380769647894809  1.0000
  O   O14       1.0  0.8718767867316758  0.6787483751610637  0.8180814895937089  1.0000
  O   O15       1.0  0.12811737758882222  0.553819851626578  0.949399848786868  1.0000
  O   O16       1.0  0.1281440160648799  0.31806344408522585  0.17874648355084588  1.0000
  O   O17       1.0  0.9967978691410977  0.5538007600671407  0.17873015920011415  1.0000
  O   O18       1.0  0.003204443789748408  0.3180728268902085  0.9494210758578416  1.0000
  O   O19       1.0  0.9967953563166319  0.44941169782351426  0.8180603901419305  1.0000
  O   O20       1.0  0.0031972729170491546  0.6787443788085669  0.05382522568859827  1.0000
  O   O21       1.0  0.767455794473321  0.6787425968574681  0.9493930585708056  1.0000
  O   O22       1.0  0.23254807798065266  0.44938699034710794  0.17874580822173403  1.0000
  O   O23       1.0  0.23253916694329743  0.3180656055969209  0.053803180903152205  1.0000
  O   O24       1.0  0.7674592233709346  0.5538103598225491  0.8180614683895583  1.0000
  O   O25       1.0  0.9084217119781999  0.6373732205423508  0.9542175532418893  1.0000
  O   O26       1.0  0.9084120578158875  0.45421751591134524  0.9542127629905934  1.0000
  O   O27       1.0  0.09157912244236144  0.45421477344345357  0.9542069561017499  1.0000
  O   O28       1.0  0.09158390543901636  0.4542070069207256  0.1373734968362825  1.0000
  O   O29       1.0  0.06762401757422516  0.39856515242245644  0.033814576455682824  1.0000
  O   O30       1.0  0.06762797756890393  0.5338153795371737  0.03381766357174595  1.0000
  O   O31       1.0  0.932373810762087  0.5338181060185719  0.8985639708398948  1.0000
  O   O32       1.0  0.9323693782468752  0.5338162025918792  0.03381630597123563  1.0000
  O   O33       1.0  0.16946299582794225  0.6132446280594904  0.2821516853230436  1.0000
  O   O34       1.0  0.39544242234921984  0.3873308212514246  0.2821361199864115  1.0000
  O   O35       1.0  0.5162329731136311  0.3875665382609982  0.4040562020595502  1.0000
  O   O36       1.0  0.2915913560982021  0.6121318959231701  0.4040713258256829  1.0000
  O   O37       1.0  0.4837659111834469  0.6121874504983964  0.5962140533778707  1.0000
  O   O38       1.0  0.708392334734171  0.3875678622310659  0.5962322948693809  1.0000
  O   O39       1.0  0.8305310190490262  0.38736065885258614  0.7172418989369546  1.0000
  O   O40       1.0  0.6045624930957487  0.6133332098929075  0.7172175476100761  1.0000
  O   O41       1.0  0.8305383107317609  0.7821524223710551  0.1132448022206558  1.0000
  O   O42       1.0  0.6045590755174501  0.7821290757659441  0.8873394124771038  1.0000
  O   O43       1.0  0.483768395224864  0.904054927204122  0.887568414525404  1.0000
  O   O44       1.0  0.7084109290666021  0.9040712259530466  0.11213427700258177  1.0000
  O   O45       1.0  0.5162327813350557  0.09621169392443829  0.11218635989167326  1.0000
  O   O46       1.0  0.29160798127235676  0.09623347711679027  0.8875682153704715  1.0000
  O   O47       1.0  0.1694680099353789  0.21723874708773386  0.8873643314717794  1.0000
  O   O48       1.0  0.39543574451762703  0.2172208167217917  0.11332710704315457  1.0000
  O   O49       1.0  0.3953893618833818  0.3873457113944241  0.11326935251929625  1.0000
  O   O50       1.0  0.16943224539642193  0.6133518994289562  0.8873500087531098  1.0000
  O   O51       1.0  0.29158220300656285  0.6122101072298706  0.8875643496515621  1.0000
  O   O52       1.0  0.5161950504553516  0.38756533724627235  0.11215356916171966  1.0000
  O   O53       1.0  0.7083847332759844  0.3875853085983608  0.11219682856669518  1.0000
  O   O54       1.0  0.4837712737226384  0.6121864064803403  0.8875657764339664  1.0000
  O   O55       1.0  0.6045777719532381  0.613311899270684  0.8873559589043154  1.0000
  O   O56       1.0  0.8305311021624959  0.3873775047819663  0.11333419428071062  1.0000
  O   O57       1.0  0.6046021708178203  0.7821894209474678  0.7173248758529098  1.0000
  O   O58       1.0  0.8305552409534657  0.7821410487524787  0.7172649463859742  1.0000
  O   O59       1.0  0.7084162353072332  0.9040530202032571  0.5962436759501698  1.0000
  O   O60       1.0  0.4837976501931752  0.9041121015034507  0.5963032582104121  1.0000
  O   O61       1.0  0.2916145180270178  0.09623200248371688  0.4040754002050305  1.0000
  O   O62       1.0  0.5162275813438058  0.09622892118655808  0.4040616806527311  1.0000
  O   O63       1.0  0.3954229760220045  0.2172372189053107  0.2821246582333358  1.0000
  O   O64       1.0  0.1694673695213993  0.21723833763969944  0.28213179631630675  1.0000
  O   O65       1.0  0.9994471893422842  0.3873135155782492  0.28216024902993536  1.0000
  O   O66       1.0  0.999342321035023  0.613315668022153  0.28210231080965537  1.0000
  O   O67       1.0  0.0002530431584660701  0.612189505585775  0.4040257573682879  1.0000
  O   O68       1.0  0.00034640924590700146  0.3875322009897458  0.40408238768770843  1.0000
  O   O69       1.0  0.0002597874397310549  0.387565560018352  0.5962165159675336  1.0000
  O   O70       1.0  0.0002667199044596289  0.6121709148996782  0.596209364614019  1.0000
  O   O71       1.0  0.9993417717449165  0.61330447199947  0.7172206868187772  1.0000
  O   O72       1.0  0.9993346822918098  0.38735937855891217  0.7172259567245617  1.0000
  O   O73       1.0  0.0005536056948614038  0.7821864599755984  0.8873433787159682  1.0000
  O   O74       1.0  0.0006565460156481662  0.7821177910716203  0.11335272035671559  1.0000
  O   O75       1.0  0.9997359013032536  0.9040401970759221  0.11222579369162138  1.0000
  O   O76       1.0  0.9996484208678427  0.9041159814982863  0.8875661824223331  1.0000
  O   O77       1.0  0.9997390652869452  0.09622568067225493  0.8875932591286709  1.0000
  O   O78       1.0  0.9997237106084498  0.0962491000805131  0.11220085594160878  1.0000
  O   O79       1.0  0.0006560077355075998  0.2172494743081188  0.11333310876570826  1.0000
  O   O80       1.0  0.0006620023339394835  0.21723726891681144  0.8873756706543928  1.0000
