data_image0
_chemical_formula_structural       Er2Cu2H32C44S4N4O22
_chemical_formula_sum              "Er2 Cu2 H32 C44 S4 N4 O22"
_cell_length_a       9.454642170237818
_cell_length_b       11.306832395460155
_cell_length_c       12.282
_cell_angle_alpha    99.1343253754629
_cell_angle_beta     100.35559921301245
_cell_angle_gamma    113.88477137072562

_space_group_name_H-M_alt    "P 1"
_space_group_IT_number       1

loop_
  _space_group_symop_operation_xyz
  'x, y, z'

loop_
  _atom_site_type_symbol
  _atom_site_label
  _atom_site_symmetry_multiplicity
  _atom_site_fract_x
  _atom_site_fract_y
  _atom_site_fract_z
  _atom_site_occupancy
  Er  Er1       1.0  0.306660040764001  0.4648731073441397  0.09569747550014536  1.0000
  Er  Er2       1.0  0.6933385779295307  0.535128340082224  0.9043010793348712  1.0000
  Cu  Cu1       1.0  0.252116085893448  0.9747715847591182  0.5953274504309077  1.0000
  Cu  Cu2       1.0  0.7478830746424805  0.0252268597079919  0.40467074051423413  1.0000
  H   H1        1.0  0.742023685647503  0.5509138958950572  0.41532750045925576  1.0000
  H   H2        1.0  0.2579770806067359  0.44908955350414465  0.5846724583254498  1.0000
  H   H3        1.0  0.9069572274015699  0.675899062027078  0.2985088557455811  1.0000
  H   H4        1.0  0.09304461970761932  0.3241003834264475  0.7014914816460873  1.0000
  H   H5        1.0  0.28616620759397904  0.5775010961451912  0.435278337240426  1.0000
  H   H6        1.0  0.7138367090507955  0.4225023532540035  0.5647235475065244  1.0000
  H   H7        1.0  0.45074264214071047  0.2519032370373253  0.23585318129231334  1.0000
  H   H8        1.0  0.5492618830522105  0.7481032153211231  0.7641501791071192  1.0000
  H   H9        1.0  0.506121627325328  0.1092977069881584  0.3578372331693984  1.0000
  H   H10       1.0  0.493878602746186  0.8907047414246207  0.6421633193306703  1.0000
  H   H11       1.0  0.938675891333915  0.189559800947606  0.2772028758215157  1.0000
  H   H12       1.0  0.06132219400673485  0.8104386435195039  0.7227951663421378  1.0000
  H   H13       1.0  0.9009383588375711  0.3346958246616296  0.1563981452140695  1.0000
  H   H14       1.0  0.09906241307634642  0.6653036207918959  0.8436012291964731  1.0000
  H   H15       1.0  0.5737975609442715  0.1781946011569318  0.862655225179466  1.0000
  H   H16       1.0  0.4262032109696464  0.8218048442965936  0.1373441492310761  1.0000
  H   H17       1.0  0.7621725494300478  0.080282113687808  0.9071692907926374  1.0000
  H   H18       1.0  0.23782983669169505  0.9197163307793019  0.09282934649694134  1.0000
  H   H19       1.0  0.1613003323890965  0.0729689069174455  0.9978392596746131  1.0000
  H   H20       1.0  0.8387009813672179  0.9270275355768263  0.0021605650456920254  1.0000
  H   H21       1.0  0.40982507240956784  0.2556629420235623  0.6262470566835744  1.0000
  H   H22       1.0  0.5901703291876714  0.7443324994842868  0.3737558746432511  1.0000
  H   H23       1.0  0.43397769397893887  0.40781187658252804  0.4986122060758048  1.0000
  H   H24       1.0  0.5660214637271466  0.592188569857413  0.5013936048531916  1.0000
  H   H25       1.0  0.0840910449714016  0.0665405721406529  0.22506050927896834  1.0000
  H   H26       1.0  0.9159097184529942  0.9334648792313801  0.7749397416928189  1.0000
  H   H27       1.0  0.07661306886962656  0.9253068399241755  0.36134350139094096  1.0000
  H   H28       1.0  0.9233839384459159  0.0746936065157655  0.6386522415793862  1.0000
  H   H29       1.0  0.9775069785204239  0.3181995684919698  0.9291420928363577  1.0000
  H   H30       1.0  0.022489486952728992  0.6818038809072249  0.07085645662278488  1.0000
  H   H31       1.0  0.9492982961045727  0.41165966837355944  0.023671076234499804  1.0000
  H   H32       1.0  0.050690115308476925  0.5883367741207124  0.9763277773076736  1.0000
  C   C1        1.0  0.8622200521490199  0.5590779411207691  0.42203506160019794  1.0000
  C   C2        1.0  0.1377817864706472  0.4409275102512638  0.5779653381530707  1.0000
  C   C3        1.0  0.9525668374653549  0.6277205847393503  0.3561107952634898  1.0000
  C   C4        1.0  0.04743446780143759  0.3722818636734289  0.6438899060180603  1.0000
  C   C5        1.0  0.10600630886482777  0.6335353148418719  0.3619531855724815  1.0000
  C   C6        1.0  0.8939955354145184  0.3664661325844918  0.6380474440062684  1.0000
  C   C7        1.0  0.1687257694577582  0.5737574069416382  0.43358283784593954  1.0000
  C   C8        1.0  0.8312749967964734  0.4262460424575565  0.5664195635376855  1.0000
  C   C9        1.0  0.9214873584339146  0.49604682736183753  0.49696821313287387  1.0000
  C   C10       1.0  0.07851610005325683  0.5039536190781035  0.5030357503231215  1.0000
  C   C11       1.0  0.561328728505913  0.2423227960300594  0.24580015124628563  1.0000
  C   C12       1.0  0.4386736519561508  0.7576796523827198  0.7542006988167457  1.0000
  C   C13       1.0  0.5908064372234846  0.1627253570522029  0.3127204114286855  1.0000
  C   C14       1.0  0.4091948680433078  0.8372770913605764  0.6872794756532199  1.0000
  C   C15       1.0  0.8331233229734849  0.20751349334196334  0.26770976187901135  1.0000
  C   C16       1.0  0.16687637374516137  0.7924859521115621  0.7322894637500496  1.0000
  C   C17       1.0  0.8109048542002313  0.2889707650845708  0.20015570125674026  1.0000
  C   C18       1.0  0.18909645389639712  0.7110296813553703  0.7998438936380836  1.0000
  C   C19       1.0  0.5015425834234364  0.12131755189624728  0.9128960856511696  1.0000
  C   C20       1.0  0.4984619530888494  0.8786808925708627  0.08710284920137207  1.0000
  C   C21       1.0  0.5487862651740657  0.0367872518501855  0.9671449295228667  1.0000
  C   C22       1.0  0.45121397055713436  0.9632111926169173  0.032851781804467385  1.0000
  C   C23       1.0  0.6899185069552871  0.023884536921372  0.9580519213910605  1.0000
  C   C24       1.0  0.3100833429837451  0.9761129065593153  0.04194649541424409  1.0000
  C   C25       1.0  0.2667722404301927  0.05959372639930649  0.9887516162150332  1.0000
  C   C26       1.0  0.7332269201057358  0.9404047180678035  0.01124738892974618  1.0000
  C   C27       1.0  0.3646965938048154  0.1323284024949274  0.9246799285658298  1.0000
  C   C28       1.0  0.635304714291813  0.8676720439450208  0.07531966632899413  1.0000
  C   C29       1.0  0.3401712871230842  0.21797380141070732  0.5370897942936351  1.0000
  C   C30       1.0  0.6598214222412153  0.7820246430564026  0.4629115749608274  1.0000
  C   C31       1.0  0.35186188777662153  0.3020236279760979  0.4649528674743592  1.0000
  C   C32       1.0  0.6481340443436494  0.6979768184638502  0.5350476119123471  1.0000
  C   C33       1.0  0.2593496872832333  0.24933470588857887  0.3511096699629163  1.0000
  C   C34       1.0  0.7406478533851839  0.7506687435106159  0.6488930992759164  1.0000
  C   C35       1.0  0.1575487564944069  0.111917288444225  0.31324185291040857  1.0000
  C   C36       1.0  0.8424466366133104  0.8880841589821316  0.6867586981790977  1.0000
  C   C37       1.0  0.15294997602853747  0.032550076342531  0.3891198555358243  1.0000
  C   C38       1.0  0.8470454170791797  0.9674513710838326  0.6108774387551107  1.0000
  C   C39       1.0  0.6715189054684387  0.30669322961635  0.18755673115202137  1.0000
  C   C40       1.0  0.3284840111763359  0.6933102197828447  0.8124435251956468  1.0000
  C   C41       1.0  0.6355303558825653  0.3870484153126768  0.10988941888561495  1.0000
  C   C42       1.0  0.3644736331276448  0.6129570360593561  0.8901112784306092  1.0000
  C   C43       1.0  0.273578656580554  0.33578489788448  0.26900796536811805  1.0000
  C   C44       1.0  0.7264204982956884  0.6642175505282992  0.730994880949396  1.0000
  S   S1        1.0  0.3082497771336463  0.237016567027915  0.8525937122252073  1.0000
  S   S2        1.0  0.6917504557677105  0.7629838794120332  0.14740654808777978  1.0000
  S   S3        1.0  0.21832073041881733  0.7145011022532088  0.270811063768825  1.0000
  S   S4        1.0  0.7816795024825396  0.2854993441867322  0.7291875681448727  1.0000
  N   N1        1.0  0.2434029852912829  0.0846143829051798  0.4992249950399382  1.0000
  N   N2        1.0  0.7565918716337166  0.9153860635347684  0.500774521365642  1.0000
  N   N3        1.0  0.7247527851066878  0.1439948991974376  0.32289598912480233  1.0000
  N   N4        1.0  0.2752479868072228  0.8560045462560879  0.67710338528574  1.0000
  O   O1        1.0  0.1826951694354051  0.2805804969283727  0.16644085377306786  1.0000
  O   O2        1.0  0.8173023712330121  0.719422952470822  0.8335619154657649  1.0000
  O   O3        1.0  0.377599544544708  0.4578361728251679  0.29988517543806376  1.0000
  O   O4        1.0  0.6224012245393666  0.5421652746011958  0.7001169337584867  1.0000
  O   O5        1.0  0.22164544067602782  0.6029201452454487  0.18988431498284083  1.0000
  O   O6        1.0  0.7783542560426113  0.3970793002080697  0.8101149106462201  1.0000
  O   O7        1.0  0.2377867143384549  0.2998695052044269  0.9272593703664569  1.0000
  O   O8        1.0  0.7622162023063197  0.7001339441947678  0.07274007178156688  1.0000
  O   O9        1.0  0.12496617134480914  0.7720658291831057  0.20878505555855748  1.0000
  O   O10       1.0  0.8750286912398694  0.227930613311166  0.7912155048721417  1.0000
  O   O11       1.0  0.3767133055587947  0.8128750444610658  0.34218468707214805  1.0000
  O   O12       1.0  0.6232880025378336  0.1871254019788751  0.6578092084251849  1.0000
  O   O13       1.0  0.5125497970902799  0.4066297116227986  0.10915236757232796  1.0000
  O   O14       1.0  0.48745311672465863  0.5933757397492343  0.8908473667627774  1.0000
  O   O15       1.0  0.457881034460712  0.3354535713800999  0.8358630373620597  1.0000
  O   O16       1.0  0.5421197374532056  0.6645458740734256  0.1641355228488379  1.0000
  O   O17       1.0  0.1919247339029013  0.1508276324871218  0.7442388861385821  1.0000
  O   O18       1.0  0.8080749628157449  0.8491718129664036  0.2557619678897609  1.0000
  O   O19       1.0  0.7291928152180063  0.42808885845320793  0.047141378156816016  1.0000
  O   O20       1.0  0.2708154689136038  0.5719205968645014  0.9528621270587792  1.0000
  O   O21       1.0  0.023157407081995998  0.3739635208557743  0.009971874429048488  1.0000
  O   O22       1.0  0.9768401307565782  0.6260419305162586  0.9900263017990126  1.0000
