data_image0
_chemical_formula_structural       Tl4B4H24C16N24
_chemical_formula_sum              "Tl4 B4 H24 C16 N24"
_cell_length_a       5.98380714502141
_cell_length_b       7.767791388230163
_cell_length_c       17.954213383517555
_cell_angle_alpha    89.9991573562588
_cell_angle_beta     89.99983625693946
_cell_angle_gamma    90.00027809525852

_space_group_name_H-M_alt    "P 1"
_space_group_IT_number       1

loop_
  _space_group_symop_operation_xyz
  'x, y, z'

loop_
  _atom_site_type_symbol
  _atom_site_label
  _atom_site_symmetry_multiplicity
  _atom_site_fract_x
  _atom_site_fract_y
  _atom_site_fract_z
  _atom_site_occupancy
  Tl  Tl1       1.0  0.5126470870227208  0.3047382318183054  0.17959676166046273  1.0000
  Tl  Tl2       1.0  0.012651164152622097  0.19526534554102423  0.8204006809347886  1.0000
  Tl  Tl3       1.0  0.487361549123264  0.804735030203716  0.32040449083439165  1.0000
  Tl  Tl4       1.0  0.9873523110698981  0.6952648946275204  0.6795971719448344  1.0000
  B   B1        1.0  0.2884795430582585  0.3206717634179909  0.3933054255575427  1.0000
  B   B2        1.0  0.7884758588059382  0.17933150016587973  0.606696218991665  1.0000
  B   B3        1.0  0.7115375550163064  0.8206779983688647  0.10669405590510189  1.0000
  B   B4        1.0  0.21153753742598974  0.6793222402415113  0.8933050758286853  1.0000
  H   H1        1.0  0.9870934611415547  0.598371926865319  0.18869821990814728  1.0000
  H   H2        1.0  0.48709899184250083  0.9016202728231378  0.8113045570799071  1.0000
  H   H3        1.0  0.012905446195866  0.09837912875414638  0.31130599970346395  1.0000
  H   H4        1.0  0.5128975004052376  0.40163217366092846  0.6886936705246143  1.0000
  H   H5        1.0  0.8314887621844772  0.4644494845428114  0.4090152425787394  1.0000
  H   H6        1.0  0.3314821123402751  0.035548781378899705  0.5909869193814927  1.0000
  H   H7        1.0  0.16851258072089334  0.9644710793231396  0.0909838927186613  1.0000
  H   H8        1.0  0.6685253137992857  0.5355380191085857  0.9090091518787061  1.0000
  H   H9        1.0  0.5458732876593612  0.7537321702840954  0.5475824966608585  1.0000
  H   H10       1.0  0.04586926814940989  0.7462687708379009  0.45242012935570836  1.0000
  H   H11       1.0  0.4541155359795538  0.2537360712960677  0.9524116471360811  1.0000
  H   H12       1.0  0.9541038842813161  0.2462677770608224  0.047584275268533795  1.0000
  H   H13       1.0  0.11493720746015157  0.3286041759499838  0.5450776546282085  1.0000
  H   H14       1.0  0.6149398294446511  0.17139332557572126  0.4549241496349977  1.0000
  H   H15       1.0  0.8850738395759021  0.8286067584590102  0.954920474655232  1.0000
  H   H16       1.0  0.38507293307061724  0.6713863685063614  0.0450796113527119  1.0000
  H   H17       1.0  0.4589847686077275  0.29391730817962264  0.35864058746837196  1.0000
  H   H18       1.0  0.9589826261999402  0.20608398251365398  0.64136312807166  1.0000
  H   H19       1.0  0.5410187820430109  0.7939191730142525  0.1413585050919863  1.0000
  H   H20       1.0  0.04102593448524059  0.7060791763046623  0.8586413405331965  1.0000
  H   H21       1.0  0.1997462014057873  0.18915379140036487  0.41539540190290575  1.0000
  H   H22       1.0  0.6997419167800415  0.31084787155982946  0.584607995223642  1.0000
  H   H23       1.0  0.8002666793023463  0.6891559505814799  0.0846076905267665  1.0000
  H   H24       1.0  0.30026232734947905  0.8108355896145127  0.9153941444468002  1.0000
  C   C1        1.0  0.9977066920585496  0.5493866506926679  0.24517369186710877  1.0000
  C   C2        1.0  0.4977063646383753  0.9506107359283787  0.7548285183684127  1.0000
  C   C3        1.0  0.0022751776026481998  0.0493880353306011  0.2548286075676102  1.0000
  C   C4        1.0  0.5022787552909092  0.45061421809597146  0.7451660597149327  1.0000
  C   C5        1.0  0.9173607986884703  0.47968267521596186  0.35614344318030067  1.0000
  C   C6        1.0  0.41736694819253006  0.020315893854636596  0.6438586397510944  1.0000
  C   C7        1.0  0.08263228965937938  0.97970214646886  0.14385838130649375  1.0000
  C   C8        1.0  0.5826487324988107  0.5203130855446078  0.8561408689950907  1.0000
  C   C9        1.0  0.45410699642420826  0.6403397199535021  0.5299413535318322  1.0000
  C   C10       1.0  0.9541057232372693  0.8596678116977187  0.47006089679399554  1.0000
  C   C11       1.0  0.5458944421902102  0.14033046387122278  0.9700529455689232  1.0000
  C   C12       1.0  0.045884895374982186  0.3596603571542616  0.029944466477452594  1.0000
  C   C13       1.0  0.23622325973079222  0.42639435075331983  0.5300100763240108  1.0000
  C   C14       1.0  0.736211728136851  0.0736061536092052  0.4699921732975837  1.0000
  C   C15       1.0  0.7637884378928842  0.9263972737009923  0.9699896666077518  1.0000
  C   C16       1.0  0.2637686314422609  0.5735941377674936  0.030008303135396392  1.0000
  N   N1        1.0  0.12477663626657427  0.42142944715408254  0.34161258280941087  1.0000
  N   N2        1.0  0.6247801792756533  0.0785706638214663  0.6583903263352936  1.0000
  N   N3        1.0  0.8752244203825084  0.9214383422839632  0.15838737971778014  1.0000
  N   N4        1.0  0.37522419073076196  0.5785663362481087  0.8416110444003237  1.0000
  N   N5        1.0  0.17774003992426657  0.46636761311625463  0.27002699206022374  1.0000
  N   N6        1.0  0.6777409781438022  0.03362753534540269  0.7299758683627713  1.0000
  N   N7        1.0  0.8222512886013715  0.9663674197745279  0.22997380217904603  1.0000
  N   N8        1.0  0.3222513946563267  0.5336344970106098  0.770025784639685  1.0000
  N   N9        1.0  0.8317034931716518  0.5616347667290711  0.2968774708584405  1.0000
  N   N10       1.0  0.33170354265032387  0.9383658960356273  0.7031232212107028  1.0000
  N   N11       1.0  0.16828180036942084  0.06164881641479521  0.20312530857438554  1.0000
  N   N12       1.0  0.6682931940428103  0.4383643219532586  0.7968697628784865  1.0000
  N   N13       1.0  0.336489177014684  0.4330758309945538  0.46292937613662116  1.0000
  N   N14       1.0  0.8364836909897235  0.06692631466304279  0.5370738951540159  1.0000
  N   N15       1.0  0.6635236553486903  0.9330804314931388  0.0370688423283951  1.0000
  N   N16       1.0  0.1635155880005996  0.5669209249822984  0.962930333589405  1.0000
  N   N17       1.0  0.4784661421256258  0.5718182323160905  0.46230395212612047  1.0000
  N   N18       1.0  0.978466396357781  0.9281855232521466  0.5376966048778726  1.0000
  N   N19       1.0  0.5215359309210824  0.07181862672175042  0.037691522737247886  1.0000
  N   N20       1.0  0.0215302725572499  0.42817983255769587  0.9623042407817974  1.0000
  N   N21       1.0  0.3053116149874739  0.5551188499834437  0.5740622524901722  1.0000
  N   N22       1.0  0.8053129710509591  0.9448752827751647  0.4259390208577968  1.0000
  N   N23       1.0  0.694689256674756  0.055118074993984606  0.9259342527904906  1.0000
  N   N24       1.0  0.1946782145030922  0.4448822828320401  0.0740635792735489  1.0000
