data_image0
_chemical_formula_structural       Cu4H12C16I4N8Cl4
_chemical_formula_sum              "Cu4 H12 C16 I4 N8 Cl4"
_cell_length_a       3.9910482070615254
_cell_length_b       10.420692160022277
_cell_length_c       17.649071928136145
_cell_angle_alpha    89.99997568660724
_cell_angle_beta     89.9994760796651
_cell_angle_gamma    89.999773991056

_space_group_name_H-M_alt    "P 1"
_space_group_IT_number       1

loop_
  _space_group_symop_operation_xyz
  'x, y, z'

loop_
  _atom_site_type_symbol
  _atom_site_label
  _atom_site_symmetry_multiplicity
  _atom_site_fract_x
  _atom_site_fract_y
  _atom_site_fract_z
  _atom_site_occupancy
  Cu  Cu1       1.0  0.5929961268630564  0.2825046118583218  0.5462733124806578  1.0000
  Cu  Cu2       1.0  0.9069976705345795  0.7174938942046722  0.0462766218329591  1.0000
  Cu  Cu3       1.0  0.40699764202116034  0.7825049840629174  0.9537283186338641  1.0000
  Cu  Cu4       1.0  0.09299409813539938  0.2174949280301277  0.45372683549600623  1.0000
  H   H1        1.0  0.4010960966826786  0.3389040209897516  0.7060728690295621  1.0000
  H   H2        1.0  0.09892177489796691  0.6610845439393812  0.20606898839095325  1.0000
  H   H3        1.0  0.5989196172093967  0.8389042241746267  0.7939310135756872  1.0000
  H   H4        1.0  0.9011006666206214  0.16109603272363418  0.29392938437626276  1.0000
  H   H5        1.0  0.763609270747402  0.5625799403025695  0.5277633189061817  1.0000
  H   H6        1.0  0.7363951912862561  0.4374137801936371  0.027766538494809402  1.0000
  H   H7        1.0  0.2363868590182321  0.06258075406567092  0.9722327042533365  1.0000
  H   H8        1.0  0.2635917110933477  0.937416266565826  0.47223346116063425  1.0000
  H   H9        1.0  0.36703989738840886  0.5367123751383502  0.7883451978368399  1.0000
  H   H10       1.0  0.13294004127623538  0.4632866897937263  0.288342988853195  1.0000
  H   H11       1.0  0.6329715435181457  0.0367118326438032  0.7116615975733468  1.0000
  H   H12       1.0  0.8670541001596062  0.9632971168568147  0.2116564373592311  1.0000
  C   C1        1.0  0.4722176275539169  0.433360274425155  0.6846722138718564  1.0000
  C   C2        1.0  0.027803491971475594  0.5666407802317082  0.18467192573221072  1.0000
  C   C3        1.0  0.5278020836700179  0.9333567274467995  0.8153293773811401  1.0000
  C   C4        1.0  0.9722124465755115  0.06664255527596907  0.31532703858260913  1.0000
  C   C5        1.0  0.677285101777713  0.5563932536993832  0.5862956778618625  1.0000
  C   C6        1.0  0.8227073071644142  0.44359754811693364  0.08629755877439751  1.0000
  C   C7        1.0  0.3227035774494524  0.05639398236203871  0.9137077127663815  1.0000
  C   C8        1.0  0.17727952889770648  0.9436030780663598  0.4136979064317359  1.0000
  C   C9        1.0  0.6617313955238444  0.6636087756139871  0.6338862864637207  1.0000
  C   C10       1.0  0.8382618679030855  0.3363896708738423  0.13388759235119355  1.0000
  C   C11       1.0  0.3382661552937805  0.16361335264477364  0.8661119764264386  1.0000
  C   C12       1.0  0.161738647070429  0.8363933364230649  0.3661056347377071  1.0000
  C   C13       1.0  0.45689947789354324  0.5424326793554994  0.7299879147959061  1.0000
  C   C14       1.0  0.04308749652496149  0.4575673848815783  0.22999045233239462  1.0000
  C   C15       1.0  0.5431169129008069  0.0424341464552711  0.7700137796795234  1.0000
  C   C16       1.0  0.9569117175019031  0.9575738037340429  0.2700112417928011  1.0000
  I   I1        1.0  0.5905902227636092  0.3639781358591563  0.40665576489803373  1.0000
  I   I2        1.0  0.9094061053351723  0.636023004032836  0.9066561478264604  1.0000
  I   I3        1.0  0.4094049847006076  0.8639777900095921  0.09334708714782641  1.0000
  I   I4        1.0  0.09059424715872672  0.13602428639296696  0.5933460885586967  1.0000
  N   N1        1.0  0.5804711069005465  0.4408837133062775  0.6122229497609625  1.0000
  N   N2        1.0  0.9195329306003044  0.5591109093889199  0.11222173852567613  1.0000
  N   N3        1.0  0.4195284786879796  0.9408812333415142  0.887779206131228  1.0000
  N   N4        1.0  0.0804705607319889  0.059115844704095415  0.3877766611895481  1.0000
  N   N5        1.0  0.551658858697799  0.6586101228830046  0.704775696997743  1.0000
  N   N6        1.0  0.9483119004523883  0.3413901946751849  0.2047767416571844  1.0000
  N   N7        1.0  0.44834876823771447  0.1586145888442729  0.7952208673942707  1.0000
  N   N8        1.0  0.0516760327054584  0.8413979061872893  0.29522101694196584  1.0000
  Cl  Cl1       1.0  0.7940648426005409  0.8113858232463967  0.6001993535506074  1.0000
  Cl  Cl2       1.0  0.7059045334239045  0.1886136057938685  0.10020327739613323  1.0000
  Cl  Cl3       1.0  0.2059361331202041  0.31139152847425317  0.8997983037147892  1.0000
  Cl  Cl4       1.0  0.29406248931859846  0.6886122588036371  0.3997933883634418  1.0000
