data_image0
_chemical_formula_structural       Ba2H28C24N4O20
_chemical_formula_sum              "Ba2 H28 C24 N4 O20"
_cell_length_a       8.444588388639628
_cell_length_b       10.507468106887744
_cell_length_c       10.69949084330673
_cell_angle_alpha    79.62505222594456
_cell_angle_beta     67.70579047789676
_cell_angle_gamma    86.46996196197351

_space_group_name_H-M_alt    "P 1"
_space_group_IT_number       1

loop_
  _space_group_symop_operation_xyz
  'x, y, z'

loop_
  _atom_site_type_symbol
  _atom_site_label
  _atom_site_symmetry_multiplicity
  _atom_site_fract_x
  _atom_site_fract_y
  _atom_site_fract_z
  _atom_site_occupancy
  Ba  Ba1       1.0  0.17446496322497748  0.43068058312493923  0.8289377094247143  1.0000
  Ba  Ba2       1.0  0.8255342276906815  0.5693188594553363  0.17106281078435615  1.0000
  H   H1        1.0  0.17674965184981065  0.9742119377121555  0.7085462770602788  1.0000
  H   H2        1.0  0.8232494975066162  0.0257855732351828  0.2914536560701393  1.0000
  H   H3        1.0  0.43031969811579535  0.3284231195887345  0.4803491340845625  1.0000
  H   H4        1.0  0.5696807475097928  0.6715763261001727  0.5196491315709508  1.0000
  H   H5        1.0  0.2875202819068221  0.23453494009520887  0.5961806848888926  1.0000
  H   H6        1.0  0.7124788819681741  0.7654635383880191  0.40381907606487727  1.0000
  H   H7        1.0  0.2800217711329722  0.5972626471456479  0.04431479156232853  1.0000
  H   H8        1.0  0.7199748727965628  0.4027367995339048  0.955687443458018  1.0000
  H   H9        1.0  0.24193269670869463  0.45124121933887557  0.10847632172156103  1.0000
  H   H10       1.0  0.7580677469204107  0.5487572553752998  0.8915230475425415  1.0000
  H   H11       1.0  0.6981314844541443  0.13764034704732353  0.9819461327596242  1.0000
  H   H12       1.0  0.3018690007342001  0.8623600592997889  0.018053823583130808  1.0000
  H   H13       1.0  0.5466825783274841  0.11207485152653623  0.2180471057263774  1.0000
  H   H14       1.0  0.4533230383993826  0.8879255363055026  0.7819522152896639  1.0000
  H   H15       1.0  0.27783566269031473  0.1010172221084034  0.4232013655417219  1.0000
  H   H16       1.0  0.7221687138451999  0.8989841301509005  0.5768000378512285  1.0000
  H   H17       1.0  0.09532394543022349  0.9017548299390232  0.5033136579848687  1.0000
  H   H18       1.0  0.904679128303485  0.09824750394175653  0.4966851706252626  1.0000
  H   H19       1.0  0.1754279930175073  0.7220312142565251  0.3689959874780726  1.0000
  H   H20       1.0  0.8245712454468334  0.27797307288088996  0.6310018089838749  1.0000
  H   H21       1.0  0.21580287433644682  0.6130351720670221  0.5287303110909959  1.0000
  H   H22       1.0  0.7841963561419691  0.386965231171466  0.4712718998053162  1.0000
  H   H23       1.0  0.19560354507152766  0.464146383153441  0.5464300006383311  1.0000
  H   H24       1.0  0.8043943806085992  0.535854030731784  0.4535707390837586  1.0000
  H   H25       1.0  0.4716327004245572  0.6274899811921558  0.7492910558114331  1.0000
  H   H26       1.0  0.5283664924875852  0.3725104323628515  0.25070836078904074  1.0000
  H   H27       1.0  0.33932145217168136  0.7249942504381154  0.706576940270132  1.0000
  H   H28       1.0  0.6606777136997978  0.27500519901985143  0.29342171707504855  1.0000
  C   C1        1.0  0.676299424222961  0.9310471940489295  0.06085730052961229  1.0000
  C   C2        1.0  0.3237023242044402  0.06895127001850203  0.9391435399087201  1.0000
  C   C3        1.0  0.5140157390180562  0.9236377870421398  0.17772705934169147  1.0000
  C   C4        1.0  0.4859847336481948  0.07636262274381521  0.8222719655691222  1.0000
  C   C5        1.0  0.46404558206860713  0.027132018779873604  0.2510902205464163  1.0000
  C   C6        1.0  0.5359561933994569  0.9728674093846053  0.7489113791472092  1.0000
  C   C7        1.0  0.31408245133123097  0.0203087396380042  0.3669338022385276  1.0000
  C   C8        1.0  0.6859193386554026  0.9796916560623644  0.6330676252784571  1.0000
  C   C9        1.0  0.21220227069768066  0.9087271654928701  0.4118504112629963  1.0000
  C   C10       1.0  0.7877994942447727  0.09127323708518281  0.5881491533900985  1.0000
  C   C11       1.0  0.2595266797205795  0.8060931465230112  0.33883909218810976  1.0000
  C   C12       1.0  0.7404712769931692  0.19391017340873162  0.6611601995720947  1.0000
  C   C13       1.0  0.40897565936693786  0.8123593212602316  0.2209466745612971  1.0000
  C   C14       1.0  0.5910248508655868  0.18764107820919662  0.7790551446453478  1.0000
  C   C15       1.0  0.4399898177530446  0.7026193572451049  0.1399969363298013  1.0000
  C   C16       1.0  0.5600094021997678  0.2973820204069497  0.860003239525973  1.0000
  C   C17       1.0  0.9151330379567498  0.8780647791518277  0.9101787784842088  1.0000
  C   C18       1.0  0.08486745975368139  0.1219356237564426  0.08982210929048762  1.0000
  C   C19       1.0  0.9058286541356821  0.013296770343671901  0.8858217793094099  1.0000
  C   C20       1.0  0.0941705117357969  0.9867026791142879  0.11417687803576367  1.0000
  C   C21       1.0  0.023819307360362495  0.11523516781654312  0.7904559759754903  1.0000
  C   C22       1.0  0.9761837373361998  0.8847652309924573  0.20954319698793716  1.0000
  C   C23       1.0  0.05352829539882719  0.7907585857820935  0.8433936922136026  1.0000
  C   C24       1.0  0.9464696177592061  0.20924183154197357  0.15660611607654568  1.0000
  N   N1        1.0  0.7726335538135204  0.8287902591205241  0.019570421056137405  1.0000
  N   N2        1.0  0.2273656536171913  0.17121112197037291  0.9804288233676886  1.0000
  N   N3        1.0  0.7543559465755081  0.04390001703104221  0.9831435467607433  1.0000
  N   N4        1.0  0.24564583088903896  0.9561003821081687  0.016856949324299778  1.0000
  O   O1        1.0  0.994976678633151  0.2307227331160392  0.8011909931106372  1.0000
  O   O2        1.0  0.0050250342244524  0.7692767122426504  0.1988059494232601  1.0000
  O   O3        1.0  0.1627961585042783  0.07888576523265561  0.6936365245111203  1.0000
  O   O4        1.0  0.8372029783300549  0.9211117491535251  0.3063624771873421  1.0000
  O   O5        1.0  0.18646780512090536  0.8415081629237661  0.7402138688594135  1.0000
  O   O6        1.0  0.8135313066692477  0.15848935834009842  0.25978326997516626  1.0000
  O   O7        1.0  0.0372976613244518  0.671785107133708  0.8901046455894033  1.0000
  O   O8        1.0  0.9627028238638857  0.3282152992134044  0.1098953107533518  1.0000
  O   O9        1.0  0.4008432528964859  0.7249552752227332  0.033234267359588905  1.0000
  O   O10       1.0  0.5991533639923927  0.2750432073597652  0.9667672084054573  1.0000
  O   O11       1.0  0.4908574186837454  0.5958778130199393  0.1860721953195323  1.0000
  O   O12       1.0  0.5091418263132397  0.4041235577544313  0.8139298434001319  1.0000
  O   O13       1.0  0.3309883333822796  0.32389018734337344  0.5690533104813014  1.0000
  O   O14       1.0  0.6690095922978472  0.6761102265418515  0.4309474292407883  1.0000
  O   O15       1.0  0.20042124658522206  0.5241183243338199  0.059469881406521076  1.0000
  O   O16       1.0  0.7995766500577587  0.4758801544796185  0.9405312026688579  1.0000
  O   O17       1.0  0.13597018073797068  0.5421811892195407  0.5812082412532007  1.0000
  O   O18       1.0  0.8640303294945538  0.4578192102498804  0.41879357795345135  1.0000
  O   O19       1.0  0.41617755090072  0.6491545823910486  0.6831211136769612  1.0000
  O   O20       1.0  0.5838216274928456  0.35084486362806905  0.316878475100161  1.0000
