data_image0
_chemical_formula_structural       C52F14H24N16Zn4
_chemical_formula_sum              "C52 F14 H24 N16 Zn4"
_cell_length_a       14.886132332318422
_cell_length_b       14.766233796166567
_cell_length_c       14.989143918746166
_cell_angle_alpha    99.83426946973623
_cell_angle_beta     115.62999762429723
_cell_angle_gamma    112.47174573976461

_space_group_name_H-M_alt    "P 1"
_space_group_IT_number       1

loop_
  _space_group_symop_operation_xyz
  'x, y, z'

loop_
  _atom_site_type_symbol
  _atom_site_label
  _atom_site_symmetry_multiplicity
  _atom_site_fract_x
  _atom_site_fract_y
  _atom_site_fract_z
  _atom_site_occupancy
  C   C1        1.0  0.905591814398818  0.02246409591991474  0.1940784754888653  1.0000
  C   C2        1.0  0.10662269943965448  0.7932673669264358  0.20765067386830796  1.0000
  C   C3        1.0  0.001019482139000277  0.29124223965263957  0.11191976373364554  1.0000
  C   C4        1.0  0.0018050467406567849  0.14142640907403592  0.6941382715413624  1.0000
  C   C5        1.0  0.4611840530960338  0.30774079440829644  0.32791619175745274  1.0000
  C   C6        1.0  0.8081701699211197  0.6979603575165425  0.7186308842708371  1.0000
  C   C7        1.0  0.5462839793556927  0.8483093120616658  0.8569985769314529  1.0000
  C   C8        1.0  0.1970883735337101  0.893483016783776  0.9106112152952336  1.0000
  C   C9        1.0  0.30044805253424334  0.7961434196343831  0.903419537843135  1.0000
  C   C10       1.0  0.3859324123652573  0.7843739923284403  0.8887680503150721  1.0000
  C   C11       1.0  0.25450845426024693  0.8569467297169736  0.8701528320825319  1.0000
  C   C12       1.0  0.44388770756746987  0.8411013272234698  0.8495607942062905  1.0000
  C   C13       1.0  0.10706780741539046  0.49031527164233074  0.19067577437651562  1.0000
  C   C14       1.0  0.9013415161250505  0.06788319404165583  0.49272003725520364  1.0000
  C   C15       1.0  0.007565270303366807  0.39195871234315394  0.15199761092857508  1.0000
  C   C16       1.0  0.9971082147424185  0.14470757639312376  0.595784466293594  1.0000
  C   C17       1.0  0.9156199644503361  0.40555703945418026  0.14319470169143506  1.0000
  C   C18       1.0  0.08736443039240549  0.21728725639391666  0.5900227192602899  1.0000
  C   C19       1.0  0.916850817650861  0.5018506248827919  0.15591112032077356  1.0000
  C   C20       1.0  0.08795162993392593  0.20858372363830574  0.49615801749394717  1.0000
  C   C21       1.0  0.0146641541492728  0.5971858450513423  0.18276384063584325  1.0000
  C   C22       1.0  0.9937411011108354  0.1242948876193849  0.3950023430100842  1.0000
  C   C23       1.0  0.09637755526614462  0.27833162081104484  0.1325452271970917  1.0000
  C   C24       1.0  0.9056767839127887  0.08488976392708028  0.7005803549892137  1.0000
  C   C25       1.0  0.1120610731031207  0.5882189493296579  0.20731017993917794  1.0000
  C   C26       1.0  0.8990522733600629  0.0576918179221693  0.3977036275782382  1.0000
  C   C27       1.0  0.2338759476502475  0.6485685945140034  0.2306220583917522  1.0000
  C   C28       1.0  0.7807749731494056  0.955323667894234  0.32821155126519136  1.0000
  C   C29       1.0  0.22328161310422  0.5363050787774597  0.20231560730074707  1.0000
  C   C30       1.0  0.7799437252963559  0.9713444014912793  0.4338650063734093  1.0000
  C   C31       1.0  0.7100176376647128  0.49513807768803986  0.6200435715189984  1.0000
  C   C32       1.0  0.6258358629634772  0.40230337463191285  0.52485920240251  1.0000
  C   C33       1.0  0.7396056360253739  0.5986550119336795  0.6225887474514877  1.0000
  C   C34       1.0  0.5630355388460943  0.40218355557697544  0.42318827683094185  1.0000
  C   C35       1.0  0.6848441699169998  0.5987138648859726  0.5181518060753447  1.0000
  C   C36       1.0  0.6007951505252009  0.5059058951893647  0.4237012987832075  1.0000
  C   C37       1.0  0.6362773602823284  0.3285725689832616  0.582088924426948  1.0000
  C   C38       1.0  0.7361845287976864  0.4314335593603785  0.687432967751228  1.0000
  C   C39       1.0  0.39325090954545777  0.20446324617572736  0.31795461479892145  1.0000
  C   C40       1.0  0.853788111839663  0.7169606367327788  0.8286734458037375  1.0000
  C   C41       1.0  0.6100325558403272  0.9093360936256686  0.8200348658294274  1.0000
  C   C42       1.0  0.16485323277785144  0.9698360266527716  0.8906783934319125  1.0000
  C   C43       1.0  0.3923666119216947  0.2968932499767972  0.22162651813061982  1.0000
  C   C44       1.0  0.8259880063158678  0.8004338516325548  0.7242130367312712  1.0000
  C   C45       1.0  0.6189602623458159  0.8126960583601528  0.9146389336461455  1.0000
  C   C46       1.0  0.18094079302802896  0.8823793853687006  0.9948724800722177  1.0000
  C   C47       1.0  0.9069421945896892  0.19232396212202474  0.026751278285345875  1.0000
  C   C48       1.0  0.09491702391082418  0.17576366297227244  0.7997512581179295  1.0000
  C   C49       1.0  0.0976158897135094  0.11491529042772439  0.29696465999291644  1.0000
  C   C50       1.0  0.9149033250866764  0.7009692429767752  0.11137933837826353  1.0000
  C   C51       1.0  0.9991007652760686  0.09589201556736533  0.30014215816701306  1.0000
  C   C52       1.0  0.011699758255083783  0.6923139553865738  0.17289270046013883  1.0000
  F   F1        1.0  0.8158990346759438  0.3181622209518124  0.11596001589856539  1.0000
  F   F2        1.0  0.18300917877517264  0.3021285397439043  0.6833377735384758  1.0000
  F   F3        1.0  0.31077428668513823  0.5287807637547245  0.28508260545624614  1.0000
  F   F4        1.0  0.7692538103998033  0.8852997176117083  0.46593775796623765  1.0000
  F   F5        1.0  0.6695127006999473  0.25913424918272904  0.5476006246212322  1.0000
  F   F6        1.0  0.7139612120283234  0.4391375141628939  0.7697774352385381  1.0000
  F   F7        1.0  0.4118477183134459  0.16510157639123682  0.3946305602007527  1.0000
  F   F8        1.0  0.8630473914710708  0.6481272336941188  0.8745398091262758  1.0000
  F   F9        1.0  0.4120039476289037  0.3709338154361959  0.1803026531317045  1.0000
  F   F10       1.0  0.7995765993097523  0.8331330943917691  0.6429890174815824  1.0000
  F   F11       1.0  0.6045390040749512  0.753016387474048  0.9715258607566711  1.0000
  F   F12       1.0  0.20046990228487974  0.820078191138002  0.04786331564541505  1.0000
  F   F13       1.0  0.7935898483687326  0.15970479195036097  0.9705621636087474  1.0000
  F   F14       1.0  0.2096418365149335  0.229808613502314  0.8420199059998553  1.0000
  H   H1        1.0  0.8129129376125308  0.9860483169453572  0.15904929962977848  1.0000
  H   H2        1.0  0.1988615906578276  0.8228506109040835  0.25714953144424885  1.0000
  H   H3        1.0  0.27126210326117234  0.8916604851864419  0.8162075944590513  1.0000
  H   H4        1.0  0.4187724666299107  0.8942765590184933  0.816692284272243  1.0000
  H   H5        1.0  0.8377774070178108  0.5004303017776905  0.1411474136770181  1.0000
  H   H6        1.0  0.1656167106811496  0.26822162104186015  0.5043375566560186  1.0000
  H   H7        1.0  0.3021302478011024  0.7033766731244526  0.31552367615268656  1.0000
  H   H8        1.0  0.7822345369433066  0.8824930817065563  0.2997105657946762  1.0000
  H   H9        1.0  0.2208221382184945  0.5063107691733676  0.1283372911073286  1.0000
  H   H10       1.0  0.7130438792709273  0.9875269387474573  0.43221343245596  1.0000
  H   H11       1.0  0.7055590818871383  0.6748314839434498  0.5103094068040904  1.0000
  H   H12       1.0  0.5596548799557084  0.5151417306372251  0.34840923937743185  1.0000
  H   H13       1.0  0.5627516538130524  0.28083471352269385  0.5873486444883654  1.0000
  H   H14       1.0  0.8222490020631384  0.4398853586692154  0.7210558164936955  1.0000
  H   H15       1.0  0.18800083974666396  0.3347050443521056  0.19299676605744054  1.0000
  H   H16       1.0  0.8141161739388566  0.042072728600594085  0.6372085955456015  1.0000
  H   H17       1.0  0.5884411014668063  0.9543625667623061  0.7725106970425346  1.0000
  H   H18       1.0  0.16450554005655263  0.004872315434120328  0.8324707688627343  1.0000
  H   H19       1.0  0.18896223298320092  0.1650555080528591  0.36129557589456607  1.0000
  H   H20       1.0  0.8231049977040996  0.6409960100480916  0.06551602338489455  1.0000
  H   H21       1.0  0.2794916962846232  0.7591453797626997  0.9542165458732229  1.0000
  H   H22       1.0  0.412326131683088  0.7317481961989287  0.9213474839214728  1.0000
  H   H23       1.0  0.24475844373856864  0.6888857088884207  0.177656172682461  1.0000
  H   H24       1.0  0.7108533052776309  0.9562283507815436  0.2609021482856734  1.0000
  N   N1        1.0  0.946154474127745  0.9991015549630544  0.13408342290054537  1.0000
  N   N2        1.0  0.0693113654862359  0.8563179851569129  0.16970276770456394  1.0000
  N   N3        1.0  0.059952800140521845  0.18158966447634128  0.0644457333274602  1.0000
  N   N4        1.0  0.9395626960231669  0.0866302058321652  0.7998388625498266  1.0000
  N   N5        1.0  0.2978083016120081  0.14099545001424468  0.21984133938303782  1.0000
  N   N6        1.0  0.8900582902181998  0.8160713547775486  0.8903458475630333  1.0000
  N   N7        1.0  0.7094652185236968  0.9091579343882257  0.8532595149253056  1.0000
  N   N8        1.0  0.1355172644456035  0.000663278375711212  0.9586647516237223  1.0000
  N   N9        1.0  0.2970711786020246  0.2005298787230814  0.15739397143442352  1.0000
  N   N10       1.0  0.873078465910496  0.869477361883156  0.8231428683130065  1.0000
  N   N11       1.0  0.7151941315572189  0.8478575327149611  0.9135893983210224  1.0000
  N   N12       1.0  0.14565817979971038  0.9458132550125669  0.024002008692327978  1.0000
  N   N13       1.0  0.9416034819267768  0.12767661311131212  0.998451002255891  1.0000
  N   N14       1.0  0.05952062164507789  0.14424850240282439  0.8628574050218775  1.0000
  N   N15       1.0  0.06425858863836718  0.05568405925222923  0.19761106812647716  1.0000
  N   N16       1.0  0.9497272195340329  0.7986632043784567  0.10952044931252662  1.0000
  Zn  Zn1       1.0  0.8677722258613588  0.8574622901092968  0.012614324460670913  1.0000
  Zn  Zn2       1.0  0.1502109665141875  0.9967928255091181  0.16021650631282122  1.0000
  Zn  Zn3       1.0  0.1455510720775735  0.14018106133754318  0.01020137414894858  1.0000
  Zn  Zn4       1.0  0.8569952524924176  0.9991479758623141  0.8601386304459879  1.0000
