data_image0
_chemical_formula_structural       Cd2H50C72N14O10
_chemical_formula_sum              "Cd2 H50 C72 N14 O10"
_cell_length_a       12.273802501946687
_cell_length_b       12.4536830378614
_cell_length_c       15.221511237077738
_cell_angle_alpha    88.11113426722791
_cell_angle_beta     77.19095587543606
_cell_angle_gamma    78.59374885365744

_space_group_name_H-M_alt    "P 1"
_space_group_IT_number       1

loop_
  _space_group_symop_operation_xyz
  'x, y, z'

loop_
  _atom_site_type_symbol
  _atom_site_label
  _atom_site_symmetry_multiplicity
  _atom_site_fract_x
  _atom_site_fract_y
  _atom_site_fract_z
  _atom_site_occupancy
  Cd  Cd1       1.0  0.8320943048545076  0.5380159894227744  0.5373756774568861  1.0000
  Cd  Cd2       1.0  0.1679050926253964  0.4619852218757075  0.46262535424443024  1.0000
  H   H1        1.0  0.9212788134130822  0.9712562626000506  0.88053729894159  1.0000
  H   H2        1.0  0.0787209419577835  0.028743332050986208  0.1194617300897818  1.0000
  H   H3        1.0  0.922459141680548  0.8265380058361347  0.773868304928854  1.0000
  H   H4        1.0  0.07753810921789751  0.17346155772029456  0.22613181919592046  1.0000
  H   H5        1.0  0.7333340351844696  0.6601939776957694  0.9917167971591282  1.0000
  H   H6        1.0  0.26666553693382866  0.33980641446608933  0.008284219664844293  1.0000
  H   H7        1.0  0.7406598164185989  0.8006042480898118  0.09788262027023363  1.0000
  H   H8        1.0  0.25934142343371763  0.19939615999605562  0.9021181049170862  1.0000
  H   H9        1.0  0.8848009142529208  0.7217598156246582  0.6835485557388452  1.0000
  H   H10       1.0  0.11519282653907945  0.27824053522039804  0.3164521665365783  1.0000
  H   H11       1.0  0.7766473535035489  0.4225200485121052  0.7425374552799295  1.0000
  H   H12       1.0  0.2233539170595904  0.577476234302843  0.25746531425427577  1.0000
  H   H13       1.0  0.7565129773001759  0.5293299349440376  0.9043757268112671  1.0000
  H   H14       1.0  0.24348961172018596  0.47066800206815895  0.09562678084096629  1.0000
  H   H15       1.0  0.897996219454214  0.25430921684490937  0.9553015003560147  1.0000
  H   H16       1.0  0.10200400902130723  0.7456919952069683  0.04470004316539188  1.0000
  H   H17       1.0  0.9179954355144914  0.45029400438905753  0.9437846807483368  1.0000
  H   H18       1.0  0.082007164991424  0.5497039614575457  0.056215196350216004  1.0000
  H   H19       1.0  0.8843233879634839  0.5626724133877944  0.0828628301575662  1.0000
  H   H20       1.0  0.11567851686022829  0.4373288362138937  0.9171364488119309  1.0000
  H   H21       1.0  0.811562563435743  0.28376087383448834  0.24465512386741037  1.0000
  H   H22       1.0  0.18844034415059943  0.7162395501753736  0.755345309683257  1.0000
  H   H23       1.0  0.9030986923133  0.3803876580521646  0.3400431516104518  1.0000
  H   H24       1.0  0.0968993924521584  0.6196119134662653  0.6599568266959962  1.0000
  H   H25       1.0  0.7476287629187014  0.7144117945824675  0.3793767780092097  1.0000
  H   H26       1.0  0.2523764859872202  0.2855895084930252  0.6206199447717182  1.0000
  H   H27       1.0  0.7394950909044412  0.6490402355323114  0.20735215644538835  1.0000
  H   H28       1.0  0.2605111607641107  0.35096024195135567  0.7926457209167095  1.0000
  H   H29       1.0  0.5081121997903607  0.8621045268612165  0.6337032123605795  1.0000
  H   H30       1.0  0.4918856959797538  0.13789582775083184  0.36630006901530976  1.0000
  H   H31       1.0  0.30251551988647657  0.9509274004246681  0.6564241686282841  1.0000
  H   H32       1.0  0.6974817166550268  0.049072127088763316  0.34357924368858755  1.0000
  H   H33       1.0  0.2379719906870434  0.6693826380523904  0.5340771524092958  1.0000
  H   H34       1.0  0.7620282521454272  0.3306186100424995  0.4659211029200136  1.0000
  H   H35       1.0  0.4393024338579679  0.5789125888340722  0.5172509096600351  1.0000
  H   H36       1.0  0.5606989614074892  0.421091154220477  0.482745125749382  1.0000
  H   H37       1.0  0.8443427972453037  0.17248908498157084  0.6455631515546401  1.0000
  H   H38       1.0  0.15565629028278485  0.8275096609450401  0.3544379813329783  1.0000
  H   H39       1.0  0.9213163446057778  0.9757569058488117  0.6760543623391938  1.0000
  H   H40       1.0  0.0786800638114968  0.02424262811981491  0.32394788051917084  1.0000
  H   H41       1.0  0.2480929814832393  0.006281501614275003  0.5124034451221033  1.0000
  H   H42       1.0  0.7519024749819323  0.9937147831354666  0.4875950840330248  1.0000
  H   H43       1.0  0.17150444735268175  0.1997170832208184  0.4818490851043151  1.0000
  H   H44       1.0  0.8284935107135212  0.8002792254149327  0.5181490065958343  1.0000
  H   H45       1.0  0.8999865385762504  0.8986806067952458  0.25383365460859864  1.0000
  H   H46       1.0  0.1000128617750349  0.1013206117118344  0.7461667194543011  1.0000
  H   H47       1.0  0.8955800476947148  0.8103629672599199  0.16479816009010045  1.0000
  H   H48       1.0  0.10441935265657779  0.1896382512471604  0.8352022139727922  1.0000
  H   H49       1.0  0.7665296941822177  0.8727385631918809  0.24063251006579375  1.0000
  H   H50       1.0  0.23346870053504895  0.12726347369842023  0.7593673670543524  1.0000
  C   C1        1.0  0.8404621202229593  0.9836045476547997  0.05574402902978185  1.0000
  C   C2        1.0  0.1595399592391473  0.016395882810265106  0.9442552350623713  1.0000
  C   C3        1.0  0.8479443454032491  0.14058111231748432  0.10260454815098537  1.0000
  C   C4        1.0  0.15205856505448165  0.8594193189009833  0.8973952277612652  1.0000
  C   C5        1.0  0.834810213588064  0.895162897420342  0.9971953058645298  1.0000
  C   C6        1.0  0.16519002350162992  0.10483833625733754  0.0028042647416128864  1.0000
  C   C7        1.0  0.8814438884965127  0.9020116492013346  0.9045516997009385  1.0000
  C   C8        1.0  0.11855384986353101  0.09798956779894752  0.09544765072177341  1.0000
  C   C9        1.0  0.8798037834135712  0.8215082372159589  0.8443187304530326  1.0000
  C   C10       1.0  0.12019228434106571  0.17849295665171647  0.15568156924475568  1.0000
  C   C11       1.0  0.8269297005314796  0.7331586162177646  0.8752019301841685  1.0000
  C   C12       1.0  0.17306838423397863  0.26684095530066543  0.12479804812227968  1.0000
  C   C13       1.0  0.7774001193659217  0.7265694541004992  0.9669234022429904  1.0000
  C   C14       1.0  0.22259879352376546  0.2734301109627353  0.033077745521971694  1.0000
  C   C15       1.0  0.7822422956773281  0.8062562499055164  0.027265444245038916  1.0000
  C   C16       1.0  0.21775727931235886  0.19374414946494065  0.9727349149405171  1.0000
  C   C17       1.0  0.8523729180480758  0.6551734503981521  0.7214304958235755  1.0000
  C   C18       1.0  0.147624327107593  0.34482609874108056  0.278570943578039  1.0000
  C   C19       1.0  0.7955519508136747  0.5011589488792865  0.7556647192403857  1.0000
  C   C20       1.0  0.20445064394946402  0.4988390025501064  0.24433647313500728  1.0000
  C   C21       1.0  0.785704512866836  0.5532674237012644  0.8356740580944972  1.0000
  C   C22       1.0  0.21429724515790843  0.44673051255753654  0.16432793773763876  1.0000
  C   C23       1.0  0.8839644404885335  0.3045964534566182  0.015479412641887774  1.0000
  C   C24       1.0  0.11603728969677721  0.6954056152816861  0.9845198812049532  1.0000
  C   C25       1.0  0.893773154488102  0.41404470103056923  0.009529191771619535  1.0000
  C   C26       1.0  0.10622892497400468  0.5859557294344953  0.9904700723205337  1.0000
  C   C27       1.0  0.8748334799021367  0.4773962188130626  0.08728041424732418  1.0000
  C   C28       1.0  0.12516925591720002  0.5226050315420211  0.9127193765422632  1.0000
  C   C29       1.0  0.845977143682873  0.4295914952112767  0.1715306532312581  1.0000
  C   C30       1.0  0.15402660064187043  0.5704089439691844  0.8284689768626591  1.0000
  C   C31       1.0  0.835833122226781  0.3196868170088792  0.17876294899556902  1.0000
  C   C32       1.0  0.16417062209796277  0.6803136221715891  0.8212366810983553  1.0000
  C   C33       1.0  0.8554578662808155  0.256555206501929  0.10014084902705625  1.0000
  C   C34       1.0  0.1445450470483038  0.7434452319251366  0.8998582692467636  1.0000
  C   C35       1.0  0.8613494661219363  0.46342345129052387  0.32835843660287617  1.0000
  C   C36       1.0  0.13865111737316485  0.5365761369053176  0.6716417618870096  1.0000
  C   C37       1.0  0.7808277797759262  0.6362868042531674  0.3443723458024762  1.0000
  C   C38       1.0  0.21917513642458178  0.3637136413824963  0.655626114832934  1.0000
  C   C39       1.0  0.7767110206056245  0.6055701026261461  0.2596796752376703  1.0000
  C   C40       1.0  0.2232925519521061  0.3944311628995438  0.7403193120951739  1.0000
  C   C41       1.0  0.13151457059311875  0.8612013589716413  0.615059402945647  1.0000
  C   C42       1.0  0.8684838663205241  0.1387965814821541  0.38493988796769674  1.0000
  C   C43       1.0  0.609475857252349  0.659758825476317  0.5645463554674137  1.0000
  C   C44       1.0  0.39052337133193765  0.3402432193759923  0.435453375834406  1.0000
  C   C45       1.0  0.4863408848629263  0.7144885929959275  0.5760277765375008  1.0000
  C   C46       1.0  0.5136598396883655  0.28551429412560486  0.42397102036657947  1.0000
  C   C47       1.0  0.447361453521225  0.8203222007828188  0.6133804634581352  1.0000
  C   C48       1.0  0.5526379439586792  0.1796790105156632  0.3866205682431811  1.0000
  C   C49       1.0  0.3331198763733738  0.8702837293869196  0.6246521966427423  1.0000
  C   C50       1.0  0.6668780280109061  0.1297166468509374  0.37534911181788294  1.0000
  C   C51       1.0  0.2557692100691895  0.8152019642089103  0.5981588829266968  1.0000
  C   C52       1.0  0.7442293592864787  0.1847992535447673  0.4018409793161055  1.0000
  C   C53       1.0  0.29591341510771946  0.710207428198011  0.5589566987898849  1.0000
  C   C54       1.0  0.7040876615917568  0.2897938278588725  0.44104141072109826  1.0000
  C   C55       1.0  0.40981333084842225  0.6601154708056072  0.5482674818146904  1.0000
  C   C56       1.0  0.5901875769554293  0.3398866188051031  0.4517293272967891  1.0000
  C   C57       1.0  0.9536225015703581  0.31432280956392594  0.5429449246040788  1.0000
  C   C58       1.0  0.046376588829119214  0.6856759435712833  0.4570555506451228  1.0000
  C   C59       1.0  0.0029698443519095004  0.19797708651623222  0.5625626006967224  1.0000
  C   C60       1.0  0.9970285868189565  0.8020208395203599  0.4374380054934619  1.0000
  C   C61       1.0  0.9328666290450516  0.13467035231845165  0.617829885472716  1.0000
  C   C62       1.0  0.06713162461602448  0.8653283856461585  0.3821713932332287  1.0000
  C   C63       1.0  0.9757394100862483  0.026135243367029704  0.6348611453212244  1.0000
  C   C64       1.0  0.0242571787121975  0.9738634858821769  0.3651397673829635  1.0000
  C   C65       1.0  0.09021030251253852  0.9788332305861475  0.598294069846432  1.0000
  C   C66       1.0  0.9097871258956902  0.02116552104226341  0.4017053817625751  1.0000
  C   C67       1.0  0.16001163737711008  0.042617736500133716  0.5430389421316804  1.0000
  C   C68       1.0  0.8399851375452841  0.9573802024468566  0.4569593251414758  1.0000
  C   C69       1.0  0.11672136198208699  0.15115659469790194  0.5249222521947345  1.0000
  C   C70       1.0  0.8832772524413388  0.8488405338278685  0.4750763662028489  1.0000
  C   C71       1.0  0.8514776256744411  0.8842471257752467  0.2045548271224362  1.0000
  C   C72       1.0  0.14852261141525253  0.1157541079024398  0.7954447434837136  1.0000
  N   N1        1.0  0.8436613994330528  0.9779841787472424  0.14522639862967424  1.0000
  N   N2        1.0  0.1563396715236465  0.02201706289243791  0.8547730261581492  1.0000
  N   N3        1.0  0.8481181069163385  0.0778205439177881  0.1759614884514917  1.0000
  N   N4        1.0  0.15188230194036118  0.9221798634146768  0.8240387249157379  1.0000
  N   N5        1.0  0.844345031838074  0.08574025035265723  0.027511322538764132  1.0000
  N   N6        1.0  0.15565871248666954  0.914260188827811  0.9724883075551601  1.0000
  N   N7        1.0  0.8226252001521318  0.6516468764935014  0.8138367628990932  1.0000
  N   N8        1.0  0.1773737184803322  0.34835270298693644  0.1861630695890284  1.0000
  N   N9        1.0  0.8368243882624572  0.5656813426589339  0.6855979072376783  1.0000
  N   N10       1.0  0.16317469639424328  0.4343173960590791  0.3144038832883637  1.0000
  N   N11       1.0  0.8276854751156223  0.4952839348604315  0.250141701949964  1.0000
  N   N12       1.0  0.1723172635750957  0.5047173227032573  0.7498574312011995  1.0000
  N   N13       1.0  0.8342963069878523  0.5472066588737476  0.3858352434855163  1.0000
  N   N14       1.0  0.16570344838301315  0.4527929357772962  0.6141637855458555  1.0000
  O   O1        1.0  0.06215139444118725  0.80010058056466  0.641878318113825  1.0000
  O   O2        1.0  0.9378488791020986  0.19989654225931733  0.3581219815623625  1.0000
  O   O3        1.0  0.6839196904194154  0.7193465366563033  0.5582330845980366  1.0000
  O   O4        1.0  0.31608036628909997  0.28065550174079595  0.4417678161622902  1.0000
  O   O5        1.0  0.6328997928294625  0.5551263017534682  0.5608078063031742  1.0000
  O   O6        1.0  0.367099258245034  0.44487655502685197  0.43919259751439904  1.0000
  O   O7        1.0  0.013166922236656775  0.3689186290008522  0.4859960086830881  1.0000
  O   O8        1.0  0.9868343626834247  0.6310776898571009  0.514003472659013  1.0000
  O   O9        1.0  0.8514621224094299  0.35312228883779545  0.5833676734411738  1.0000
  O   O10       1.0  0.14853644981762668  0.6468789361244875  0.4166315311632118  1.0000
