data_image0
_chemical_formula_structural       Zn2H18C30N12O8
_chemical_formula_sum              "Zn2 H18 C30 N12 O8"
_cell_length_a       7.387858139429343
_cell_length_b       9.60821753700936
_cell_length_c       10.759768015236482
_cell_angle_alpha    106.17822067791136
_cell_angle_beta     92.19598781565811
_cell_angle_gamma    98.71377128236624

_space_group_name_H-M_alt    "P 1"
_space_group_IT_number       1

loop_
  _space_group_symop_operation_xyz
  'x, y, z'

loop_
  _atom_site_type_symbol
  _atom_site_label
  _atom_site_symmetry_multiplicity
  _atom_site_fract_x
  _atom_site_fract_y
  _atom_site_fract_z
  _atom_site_occupancy
  Zn  Zn1       1.0  0.6339745219433297  0.22222867232926555  0.2998558878279667  1.0000
  Zn  Zn2       1.0  0.36602398254041196  0.7777688470781287  0.7001432084470665  1.0000
  H   H1        1.0  0.7030711558051194  0.29271588340634486  0.8158655486315142  1.0000
  H   H2        1.0  0.2969348117960565  0.707284908407033  0.1841335620716293  1.0000
  H   H3        1.0  0.824085464773532  0.7582871837948774  0.8499493598921717  1.0000
  H   H4        1.0  0.17591733847779523  0.24171141844773564  0.15005007770344042  1.0000
  H   H5        1.0  0.7551321061577524  0.6099825732271286  0.19164853779345492  1.0000
  H   H6        1.0  0.24487226911493556  0.39001712464952487  0.8083502716605436  1.0000
  H   H7        1.0  0.6339156645232578  0.2588538229416598  0.6099950568426067  1.0000
  H   H8        1.0  0.366087159035196  0.7411447776036227  0.39000531014376344  1.0000
  H   H9        1.0  0.8829316992482389  0.70140387710412  0.653851684381678  1.0000
  H   H10       1.0  0.11706839756399749  0.2985947362399841  0.3461477131424999  1.0000
  H   H11       1.0  0.1187443475265654  0.9208631058184268  0.09438822257192207  1.0000
  H   H12       1.0  0.8812559680874867  0.07913660871047061  0.9056105267749218  1.0000
  H   H13       1.0  0.5543464041991797  0.8761144275851722  0.16328647485223516  1.0000
  H   H14       1.0  0.44565478641652584  0.12388308241805393  0.8367117321034669  1.0000
  H   H15       1.0  0.2124493645418966  0.24014976416981426  0.5583101032027783  1.0000
  H   H16       1.0  0.7875476696617483  0.7598532603817388  0.4416922178494928  1.0000
  H   H17       1.0  0.07312306607155962  0.7870154318974089  0.3304861333714726  1.0000
  H   H18       1.0  0.9268769136801253  0.21298868104010896  0.6695165089656641  1.0000
  C   C1        1.0  0.7253063183814066  0.4399592516543508  0.008888820944953631  1.0000
  C   C2        1.0  0.27469268462736096  0.5600404650306389  0.9911117671477001  1.0000
  C   C3        1.0  0.7293157590178081  0.40772558836441425  0.8740650798717909  1.0000
  C   C4        1.0  0.2706834424856481  0.5922752312026988  0.12593393065276356  1.0000
  C   C5        1.0  0.7630764022376938  0.5219549540709068  0.8168975003299508  1.0000
  C   C6        1.0  0.23692281957289654  0.4780458637988759  0.1831024395853689  1.0000
  C   C7        1.0  0.7977761113313735  0.6682362113093421  0.8931963148274562  1.0000
  C   C8        1.0  0.2022269310289033  0.3317634904207338  0.10680340398158708  1.0000
  C   C9        1.0  0.7969964395042766  0.697715372938106  0.02736875909533861  1.0000
  C   C10       1.0  0.20300550905253092  0.3022854321328553  0.9726321502821804  1.0000
  C   C11       1.0  0.759153804805095  0.586088158475505  0.08679484671422702  1.0000
  C   C12       1.0  0.2408460325910653  0.41390935707846677  0.9132033402057544  1.0000
  C   C13       1.0  0.6931324020263218  0.3603662275113351  0.5887243583281077  1.0000
  C   C14       1.0  0.3068747202997173  0.6396334558691664  0.41127634997884843  1.0000
  C   C15       1.0  0.8223104753758008  0.5868868045043598  0.6094773732391445  1.0000
  C   C16       1.0  0.1776871541062874  0.41311291942870554  0.39052226542702323  1.0000
  C   C17       1.0  0.9885033097807109  0.9493729446449921  0.12933750257897708  1.0000
  C   C18       1.0  0.011498816963659002  0.0506289650054228  0.8706608998396773  1.0000
  C   C19       1.0  0.6981941999504571  0.9216768875819171  0.16567247681158648  1.0000
  C   C20       1.0  0.301804543642234  0.0783217313129327  0.8343269006768708  1.0000
  C   C21       1.0  0.6820086293357689  0.31474171581416505  0.06854708116390638  1.0000
  C   C22       1.0  0.31798923925526884  0.6852591076063704  0.9314528387156928  1.0000
  C   C23       1.0  0.3346897777701656  0.02720087738872931  0.3695522929883026  1.0000
  C   C24       1.0  0.6653040311622435  0.9727999626840503  0.6304475667841488  1.0000
  C   C25       1.0  0.16265748487149517  0.0144562169847973  0.4379860285077513  1.0000
  C   C26       1.0  0.8373402869661248  0.9855501043318285  0.5620180655755647  1.0000
  C   C27       1.0  0.12006761232497351  0.1348303275951181  0.533152708662108  1.0000
  C   C28       1.0  0.879927788935923  0.8651716064143785  0.46684745235948805  1.0000
  C   C29       1.0  0.041445773374356114  0.8800536625578488  0.4059682329451205  1.0000
  C   C30       1.0  0.9585514999382382  0.11995046148117444  0.5940343693205747  1.0000
  N   N1        1.0  0.7598317728942803  0.49116127727577924  0.6794335838506457  1.0000
  N   N2        1.0  0.24017262268553452  0.5088384189035509  0.3205661549941112  1.0000
  N   N3        1.0  0.7167183905192899  0.3766949449766841  0.47224493909946835  1.0000
  N   N4        1.0  0.2832844533462904  0.6233036538712754  0.5277563572776671  1.0000
  N   N5        1.0  0.7970680033598897  0.5199763514585456  0.4843885863805967  1.0000
  N   N6        1.0  0.20293320756294975  0.4800211568473502  0.5156105499658707  1.0000
  N   N7        1.0  0.8280940953393952  0.8487044767111699  0.10440988055597698  1.0000
  N   N8        1.0  0.1719081126334885  0.1512974261499238  0.8955922394257314  1.0000
  N   N9        1.0  0.9583496145056146  0.07738136145112409  0.20207248035681147  1.0000
  N   N10       1.0  0.04165046199948824  0.9226172535903102  0.7979259877766011  1.0000
  N   N11       1.0  0.7752552395650766  0.058821130731161006  0.22504986436128152  1.0000
  N   N12       1.0  0.2247446384453441  0.9411763814281502  0.7749501813402305  1.0000
  O   O1        1.0  0.6480214823288151  0.35505659848639953  0.1893303481610076  1.0000
  O   O2        1.0  0.3519797285940243  0.6449409098194963  0.8106687881854597  1.0000
  O   O3        1.0  0.6797876946878675  0.18577126702741964  5.607971154108012e-06  1.0000
  O   O4        1.0  0.3202115271227228  0.814229550842363  0.9999943319441655  1.0000
  O   O5        1.0  0.3897381311233302  0.15408307926657733  0.3513841487987861  1.0000
  O   O6        1.0  0.6102619250746457  0.8459155374721876  0.6486133899438613  1.0000
  O   O7        1.0  0.4124516648374055  0.9170273553784655  0.3336977720673103  1.0000
  O   O8        1.0  0.5875400532414901  0.08297019347999421  0.6663002946383686  1.0000
