data_image0
_chemical_formula_structural       Zn2H30C46N6O8F6
_chemical_formula_sum              "Zn2 H30 C46 N6 O8 F6"
_cell_length_a       13.9827876676102
_cell_length_b       15.194240356381655
_cell_length_c       15.24073780282757
_cell_angle_alpha    88.8541370810077
_cell_angle_beta     89.50671517055555
_cell_angle_gamma    91.13645611070663

_space_group_name_H-M_alt    "P 1"
_space_group_IT_number       1

loop_
  _space_group_symop_operation_xyz
  'x, y, z'

loop_
  _atom_site_type_symbol
  _atom_site_label
  _atom_site_symmetry_multiplicity
  _atom_site_fract_x
  _atom_site_fract_y
  _atom_site_fract_z
  _atom_site_occupancy
  Zn  Zn1       1.0  0.5948746323238794  0.5027762611606832  0.49464250570486706  1.0000
  Zn  Zn2       1.0  0.39727767990600427  0.5081461511813714  0.4962314930556531  1.0000
  H   H1        1.0  0.6750890494785224  0.10662548452582851  0.6510953761018143  1.0000
  H   H2        1.0  0.33399615928748  0.4520588688053592  0.7764487907277484  1.0000
  H   H3        1.0  0.24216943541892275  0.456848753988588  0.6234749705803253  1.0000
  H   H4        1.0  0.7486593226664124  0.41707480826097043  0.3908652351815575  1.0000
  H   H5        1.0  0.2457579393596916  0.5605963569668617  0.36880030531159486  1.0000
  H   H6        1.0  0.7476086954324115  0.5890807274461523  0.6004748925947966  1.0000
  H   H7        1.0  0.33872415218036167  0.1749912679390349  0.33705607712237645  1.0000
  H   H8        1.0  0.21867116783037227  0.2125216769395166  0.4259822126032161  1.0000
  H   H9        1.0  0.2618829529253545  0.32144020579332283  0.39779300624120845  1.0000
  H   H10       1.0  0.2983949704699143  0.2699752196441736  0.4967960591845681  1.0000
  H   H11       1.0  0.636038827041503  0.8326246468895064  0.6963527945844986  1.0000
  H   H12       1.0  0.39067238491363543  0.9036977434295039  0.3159609814753707  1.0000
  H   H13       1.0  0.4895936702039093  0.6965724602688464  0.692105898969899  1.0000
  H   H14       1.0  0.5803354116778152  0.7118333660682339  0.7716768110532397  1.0000
  H   H15       1.0  0.6026610210322331  0.6477331786967327  0.6775123506056743  1.0000
  H   H16       1.0  0.7244764639434961  0.9861715435647722  0.7213309699486813  1.0000
  H   H17       1.0  0.8378614046105353  0.8779720591535849  0.6897165731158097  1.0000
  H   H18       1.0  0.828011707634168  0.9487740299242661  0.5946159799352202  1.0000
  H   H19       1.0  0.7680091377346725  0.8436965738217808  0.5992065537326497  1.0000
  H   H20       1.0  0.33845382809158037  0.025723511122272693  0.24748670565172395  1.0000
  H   H21       1.0  0.40256943914006627  0.1413362809312488  0.1601224636865339  1.0000
  H   H22       1.0  0.501983817105305  0.0785757511346148  0.19805955047461765  1.0000
  H   H23       1.0  0.6397671766091405  0.4949305530904695  0.9346342166799173  1.0000
  H   H24       1.0  0.4715947219969648  0.1792395374764197  0.24926398158203966  1.0000
  H   H25       1.0  0.3517232022748473  0.5564062334133836  0.047896500237826  1.0000
  H   H26       1.0  0.621144164426333  0.424235817183849  0.0655218779574582  1.0000
  H   H27       1.0  0.33363530523516255  0.45603182573764656  0.9395055829263015  1.0000
  H   H28       1.0  0.6388058138702419  0.48668676328902194  0.7716128284225761  1.0000
  H   H29       1.0  0.35186168695872777  0.5755950739370306  0.2096025641015373  1.0000
  H   H30       1.0  0.6233001797148388  0.45016071388085527  0.2263177631065787  1.0000
  C   C1        1.0  0.485004313287419  0.4761019071993004  0.6660048601758461  1.0000
  C   C2        1.0  0.4107892389174238  0.5429361926342438  0.17720958510391677  1.0000
  C   C3        1.0  0.5641215754357772  0.4728449083699715  0.18627598979227133  1.0000
  C   C4        1.0  0.40056963186446365  0.46131509456552783  0.8119673641243921  1.0000
  C   C5        1.0  0.4861973385713369  0.47092191587888277  0.7640424752507328  1.0000
  C   C6        1.0  0.4878847366559852  0.5144006849173125  0.22767711219426445  1.0000
  C   C7        1.0  0.4864879926806152  0.47800838197247236  0.9489156674673254  1.0000
  C   C8        1.0  0.4863131060336271  0.48863006082243743  0.044889677381569  1.0000
  C   C9        1.0  0.10097988122407026  0.4781259027771584  0.5685352419110073  1.0000
  C   C10       1.0  0.8898451341632876  0.45718347290511463  0.4355212487656104  1.0000
  C   C11       1.0  0.10299765586339757  0.5368704483160228  0.4237498823264119  1.0000
  C   C12       1.0  0.4883873594108292  0.524692252579264  0.32503988788336347  1.0000
  C   C13       1.0  0.8891450175606791  0.552277255032621  0.5565256582083009  1.0000
  C   C14       1.0  0.20026387143381896  0.47926392052873007  0.5676017437857864  1.0000
  C   C15       1.0  0.7905143711025884  0.45607922591034383  0.4365714154373137  1.0000
  C   C16       1.0  0.20230092680184697  0.5376656758577669  0.4247649439930328  1.0000
  C   C17       1.0  0.7899094444001378  0.5510873589437961  0.554960036197471  1.0000
  C   C18       1.0  0.048370722629620395  0.506857547403726  0.49610381480143667  1.0000
  C   C19       1.0  0.9430310236116809  0.5055021148007768  0.4960055554156924  1.0000
  C   C20       1.0  0.5117955702637217  0.6738526465170195  0.5218018206577567  1.0000
  C   C21       1.0  0.4996344188979406  0.33548611441941023  0.4778377049909395  1.0000
  C   C22       1.0  0.43738035306564876  0.18353591221548973  0.42941843384710404  1.0000
  C   C23       1.0  0.6372056742063208  0.9745149326046487  0.618309557994088  1.0000
  C   C24       1.0  0.5659522604965301  0.8242260211713841  0.5824487390670327  1.0000
  C   C25       1.0  0.49543286985571194  0.23692703764209713  0.4847384919708873  1.0000
  C   C26       1.0  0.5137249432927575  0.77263520003541  0.521551704126324  1.0000
  C   C27       1.0  0.5582325721456483  0.19562800881401188  0.5420647939826749  1.0000
  C   C28       1.0  0.4680186779792378  0.8146492361702472  0.4524108968593197  1.0000
  C   C29       1.0  0.5687525163713757  0.10454113087767782  0.5486766734482842  1.0000
  C   C30       1.0  0.46882581863358286  0.9056632821057207  0.438010261649076  1.0000
  C   C31       1.0  0.5186797729644396  0.0517603250773746  0.4869950678665588  1.0000
  C   C32       1.0  0.5239178941442261  0.9579547108614863  0.4966158410397553  1.0000
  C   C33       1.0  0.4588589286476575  0.09194931428064729  0.42217564292048587  1.0000
  C   C34       1.0  0.418275946146771  0.0357531144344918  0.35585248149261867  1.0000
  C   C35       1.0  0.5779044142534244  0.9174935429656655  0.565609574533724  1.0000
  C   C36       1.0  0.6306221739301847  0.0642986114592148  0.6104609525599329  1.0000
  C   C37       1.0  0.4222730218758598  0.9459630114997638  0.36549521790755074  1.0000
  C   C38       1.0  0.2811053366789125  0.25808444896362903  0.4281466982784678  1.0000
  C   C39       1.0  0.5670855159236652  0.7068545218837556  0.7010290537767715  1.0000
  C   C40       1.0  0.7894381190861564  0.9007432038945781  0.6380328993691364  1.0000
  C   C41       1.0  0.4421046436577213  0.120084930012581  0.21845716070874494  1.0000
  C   C42       1.0  0.5725175731646243  0.4841433859986779  0.900392831736923  1.0000
  C   C43       1.0  0.41046895751899354  0.5309937285407146  0.0869699086975828  1.0000
  C   C44       1.0  0.56283660563286  0.4592634334546588  0.09636008804837809  1.0000
  C   C45       1.0  0.4007252123939508  0.46446261712021913  0.9030120578364488  1.0000
  C   C46       1.0  0.5724263256225867  0.4804074233361674  0.809347879270021  1.0000
  N   N1        1.0  0.24859524194013008  0.5087871239350932  0.4961526507438876  1.0000
  N   N2        1.0  0.7430662967364796  0.5031219951752277  0.4956303828732089  1.0000
  N   N3        1.0  0.36243821493873435  0.21944269250774795  0.3822197518352581  1.0000
  N   N4        1.0  0.6013230939314268  0.7875509569705271  0.6580950609382867  1.0000
  N   N5        1.0  0.7039598012544702  0.9382027959205674  0.6791963275199677  1.0000
  N   N6        1.0  0.37534662008971503  0.0735382698857521  0.2797128360933954  1.0000
  O   O1        1.0  0.5656350634785383  0.48346183542405907  0.6264880720081007  1.0000
  O   O2        1.0  0.4080082531071055  0.5354417187333738  0.36333077159611793  1.0000
  O   O3        1.0  0.569051392375222  0.5201499949840098  0.3628608548999068  1.0000
  O   O4        1.0  0.4034896643756482  0.47543445329408474  0.6291380368368493  1.0000
  O   O5        1.0  0.5922878424989902  0.6367551854949339  0.5144977054351472  1.0000
  O   O6        1.0  0.42222947533522154  0.37787465150205424  0.4747882956379924  1.0000
  O   O7        1.0  0.5834076782274379  0.37017742189559755  0.4750084080540374  1.0000
  O   O8        1.0  0.430344852720104  0.6351721985820549  0.5254548108847601  1.0000
  F   F1        1.0  0.6108976354482961  0.24543305915671  0.5984149677447304  1.0000
  F   F2        1.0  0.4211753445611635  0.7640121950885259  0.3924973212899801  1.0000
  F   F3        1.0  0.05379181870640078  0.44669785664530787  0.6407143554854144  1.0000
  F   F4        1.0  0.936484361120783  0.4090444341057164  0.37577212738401755  1.0000
  F   F5        1.0  0.05778507156779969  0.567063006770084  0.3514824526819281  1.0000
  F   F6        1.0  0.9349525112668571  0.6012874114530362  0.6168510841049013  1.0000
