data_image0
_chemical_formula_structural       Zn8H72C92N32O4
_chemical_formula_sum              "Zn8 H72 C92 N32 O4"
_cell_length_a       14.83081725427222
_cell_length_b       17.705318794185555
_cell_length_c       15.963591498103076
_cell_angle_alpha    90.01289382981942
_cell_angle_beta     90.23789375697368
_cell_angle_gamma    78.54599542455081

_space_group_name_H-M_alt    "P 1"
_space_group_IT_number       1

loop_
  _space_group_symop_operation_xyz
  'x, y, z'

loop_
  _atom_site_type_symbol
  _atom_site_label
  _atom_site_symmetry_multiplicity
  _atom_site_fract_x
  _atom_site_fract_y
  _atom_site_fract_z
  _atom_site_occupancy
  Zn  Zn1       1.0  0.001177075593652381  0.9909061634468234  0.3543503766528459  1.0000
  Zn  Zn2       1.0  0.4936244548807807  0.5065850975668056  0.8561849418983696  1.0000
  Zn  Zn3       1.0  0.008387328562371  0.0111711647810253  0.6450061872697075  1.0000
  Zn  Zn4       1.0  0.49300269744389164  0.4900438327361131  0.15175191605550956  1.0000
  Zn  Zn5       1.0  0.16226644360841644  0.9843041356354832  0.49684719832927726  1.0000
  Zn  Zn6       1.0  0.8489521287141882  0.015797227840600697  0.5048458446914593  1.0000
  Zn  Zn7       1.0  0.6457345107092819  0.4907961414844665  0.008357951049738698  1.0000
  Zn  Zn8       1.0  0.3383041886366128  0.5175625039245589  0.0026581480620891003  1.0000
  H   H1        1.0  0.0192768634677947  0.8125519649899431  0.3181643687127859  1.0000
  H   H2        1.0  0.9797967345814272  0.16633321169879173  0.29561531776405287  1.0000
  H   H3        1.0  0.5216099237968734  0.3298289358637946  0.8012108289444342  1.0000
  H   H4        1.0  0.4806268315355807  0.6827643528027921  0.816847839679596  1.0000
  H   H5        1.0  0.265348913268049  0.24845383066782029  0.5653131953723542  1.0000
  H   H6        1.0  0.8619204130510738  0.676014120966407  0.55007489028916  1.0000
  H   H7        1.0  0.660780115145691  0.8068502622097498  0.047535305970825385  1.0000
  H   H8        1.0  0.2310372007048542  0.2613779703498195  0.06908411646682568  1.0000
  H   H9        1.0  0.459533132304344  0.7831337229651042  0.3239913197973862  1.0000
  H   H10       1.0  0.5687965414043887  0.10567724795855332  0.1447333531030708  1.0000
  H   H11       1.0  0.9254252377897955  0.3887869415948161  0.6521284420908768  1.0000
  H   H12       1.0  0.9593483346077817  0.7869743092839842  0.8461114761594073  1.0000
  H   H13       1.0  0.5589694094333524  0.7085054067525791  0.33834854254924096  1.0000
  H   H14       1.0  0.5487886334082076  0.16482950858311807  0.23588097557922785  1.0000
  H   H15       1.0  0.9497603572885466  0.32348120120419577  0.7381599763092622  1.0000
  H   H16       1.0  0.8533021844788775  0.8495363450318084  0.8188202864413936  1.0000
  H   H17       1.0  0.5395608531139756  0.8760501308152727  0.3990087439369815  1.0000
  H   H18       1.0  0.49848537152703887  0.005732195152447201  0.21607790003393026  1.0000
  H   H19       1.0  0.9908053261984975  0.48633933045729794  0.7334757814147677  1.0000
  H   H20       1.0  0.8720483973044536  0.70165698628594  0.9240981685625866  1.0000
  H   H21       1.0  0.6382287276474513  0.8012022823643365  0.41278238742263795  1.0000
  H   H22       1.0  0.4790899996749686  0.06444400297596083  0.30720825996985457  1.0000
  H   H23       1.0  0.017206942700582307  0.4195659677007343  0.8181135945405129  1.0000
  H   H24       1.0  0.766653039999781  0.7629623456798811  0.8942766896708746  1.0000
  H   H25       1.0  0.24336177777013274  0.8276372488400274  0.8890390950169831  1.0000
  H   H26       1.0  0.7584405049649803  0.19023875821992683  0.8856814222094724  1.0000
  H   H27       1.0  0.7542088735535158  0.3160181787500491  0.38595343818961675  1.0000
  H   H28       1.0  0.25777667649006725  0.6716695012823096  0.395825100604199  1.0000
  H   H29       1.0  0.8876953616411923  0.28937337309393746  0.23699018391956628  1.0000
  H   H30       1.0  0.11470540670809726  0.70157611778793  0.25338682671484486  1.0000
  H   H31       1.0  0.3854658169633253  0.7938082159704438  0.7471569014156286  1.0000
  H   H32       1.0  0.6163522071307811  0.2107432870001915  0.7423542329398741  1.0000
  H   H33       1.0  0.0326372248175844  0.8336103136572605  0.7013442635877425  1.0000
  H   H34       1.0  0.9831572739703986  0.19469784482203784  0.6701043008600747  1.0000
  H   H35       1.0  0.5167913872124217  0.3047758900659759  0.17515862179054403  1.0000
  H   H36       1.0  0.4558484645596437  0.6731399627199935  0.20510282548865888  1.0000
  H   H37       1.0  0.3392611381237386  0.8840096716142087  0.6081840196936239  1.0000
  H   H38       1.0  0.6669238253521924  0.10876649128116611  0.6130650780891427  1.0000
  H   H39       1.0  0.8329181834974404  0.3967396920105912  0.10992478927785496  1.0000
  H   H40       1.0  0.16286817058013273  0.6163865560367939  0.11371377650591087  1.0000
  H   H41       1.0  0.1356936026301199  0.9275585794213512  0.8047944252288772  1.0000
  H   H42       1.0  0.8808430963130787  0.10756819548191032  0.7984386220828695  1.0000
  H   H43       1.0  0.6276492311237335  0.39313187044733416  0.3009794082449631  1.0000
  H   H44       1.0  0.363979217625257  0.5659543836910644  0.3133346143607554  1.0000
  H   H45       1.0  0.8743804825695772  0.910648039093708  0.21096166783597425  1.0000
  H   H46       1.0  0.10844220611010508  0.05229257761291001  0.19047684641031987  1.0000
  H   H47       1.0  0.3822018103278211  0.44891098596828993  0.6962789596704366  1.0000
  H   H48       1.0  0.6225638055632244  0.5763459910964386  0.7017479068875544  1.0000
  H   H49       1.0  0.8250340091573135  0.8387191395044484  0.5083021655006233  1.0000
  H   H50       1.0  0.19429206948498742  0.16090619960741046  0.47910058256619675  1.0000
  H   H51       1.0  0.3076441683265897  0.3425413721856643  0.9809719943697954  1.0000
  H   H52       1.0  0.6648891119923873  0.6678556955541879  0.014652457731642697  1.0000
  H   H53       1.0  0.23732747841565777  0.799007617228625  0.5026223648782846  1.0000
  H   H54       1.0  0.7874701857333973  0.20046753927174885  0.5026229238845303  1.0000
  H   H55       1.0  0.7228414073722715  0.3069426751887505  0.0022436458327347994  1.0000
  H   H56       1.0  0.26196510088757197  0.703642988977812  0.9999362270722612  1.0000
  H   H57       1.0  0.32933713757226  0.3424705157952772  0.6435721459693013  1.0000
  H   H58       1.0  0.78277044892868  0.5877066556963302  0.6250037876058485  1.0000
  H   H59       1.0  0.7358669041646949  0.8992621891791119  0.11880651982466618  1.0000
  H   H60       1.0  0.16288430135286086  0.16715105174141345  0.1426560316266006  1.0000
  H   H61       1.0  0.6728514557476399  0.08209593510591158  0.46367628484625806  1.0000
  H   H62       1.0  0.565427946301419  0.05321613638295019  0.48214761685418484  1.0000
  H   H63       1.0  0.5919577701103123  0.08507945538843842  0.3797273841972242  1.0000
  H   H64       1.0  0.3527364884441652  0.9388728417114437  0.45030030112686587  1.0000
  H   H65       1.0  0.3157826377002024  0.0275063710915973  0.5081121020954524  1.0000
  H   H66       1.0  0.4319555551224353  0.0004437457056881014  0.47329387731694067  1.0000
  H   H67       1.0  0.1450232637161192  0.5553080116950468  0.9673561352760982  1.0000
  H   H68       1.0  0.19413292432754042  0.46355533705818897  0.014913077364823796  1.0000
  H   H69       1.0  0.0744347126995706  0.4869293514865519  0.9917003765086603  1.0000
  H   H70       1.0  0.9256627362249077  0.5614988377489568  0.8689041172159191  1.0000
  H   H71       1.0  0.9032659601960658  0.4734737373612533  0.9122266148238722  1.0000
  H   H72       1.0  0.9345304372374201  0.5453417378871706  0.9800998088883758  1.0000
  C   C1        1.0  0.06752983061286953  0.8216024280642246  0.366710686345435  1.0000
  C   C2        1.0  0.9381626896537297  0.16267238529017192  0.35070831950005743  1.0000
  C   C3        1.0  0.5647909738565745  0.3361335500122849  0.8548575929214761  1.0000
  C   C4        1.0  0.43223075541936135  0.6757078305196629  0.8657085294993647  1.0000
  C   C5        1.0  0.9208970785656305  0.8042643184127842  0.6181669366427085  1.0000
  C   C6        1.0  0.09761425337840987  0.21110147581335073  0.5831953023292511  1.0000
  C   C7        1.0  0.40216107137589313  0.2907732053679837  0.08633631782456769  1.0000
  C   C8        1.0  0.5660661407357708  0.7042080924983267  0.12152296207558065  1.0000
  C   C9        1.0  0.26506455413321106  0.8829213314089516  0.7308762540795894  1.0000
  C   C10       1.0  0.7445770203085259  0.12989126236902854  0.729385412363065  1.0000
  C   C11       1.0  0.7608143956118028  0.3731322720427102  0.22822134198689525  1.0000
  C   C12       1.0  0.23563561845860181  0.613440770863278  0.2380573112650025  1.0000
  C   C13       1.0  0.7445049317286558  0.9253801339777896  0.2874171119767367  1.0000
  C   C14       1.0  0.24012081224558554  0.0613332669807889  0.25668174015761736  1.0000
  C   C15       1.0  0.25188802070159966  0.439603384438101  0.763661356888427  1.0000
  C   C16       1.0  0.7361456084593812  0.5902982059731201  0.7911125693962404  1.0000
  C   C17       1.0  0.6209669973849613  0.8459106697666458  0.28233768848033236  1.0000
  C   C18       1.0  0.3824335667232431  0.10639484556357101  0.20317068650785328  1.0000
  C   C19       1.0  0.11096588129860407  0.3911180538348091  0.7099159198663045  1.0000
  C   C20       1.0  0.8331533666662665  0.6913255105962011  0.7890817762726668  1.0000
  C   C21       1.0  0.6839834460083978  0.8832450817597393  0.24279033126505567  1.0000
  C   C22       1.0  0.28794242267623094  0.106727932431447  0.20231351754608076  1.0000
  C   C23       1.0  0.20434036527267813  0.39481129330075504  0.7080702382767965  1.0000
  C   C24       1.0  0.7934491725647632  0.6359739634359514  0.7481667658174727  1.0000
  C   C25       1.0  0.2558610187795054  0.3433240201693195  0.6496689278148151  1.0000
  C   C26       1.0  0.8087607336931838  0.6315907916621555  0.6606550476972612  1.0000
  C   C27       1.0  0.6919241854992392  0.8690779690756187  0.15539471584726527  1.0000
  C   C28       1.0  0.23717515999074826  0.1628718556745454  0.1477700620991911  1.0000
  C   C29       1.0  0.21906497091858765  0.2892008870494465  0.6045854297286368  1.0000
  C   C30       1.0  0.8543171167553824  0.6818698128996914  0.6178911387886001  1.0000
  C   C31       1.0  0.6484577124400558  0.8163379481855203  0.11445044154571347  1.0000
  C   C32       1.0  0.2763581798482662  0.21718703509979062  0.10558612963579608  1.0000
  C   C33       1.0  0.12667438861533495  0.28047985053079577  0.6135023086465877  1.0000
  C   C34       1.0  0.8895597153765847  0.7404904897305615  0.6593620386280961  1.0000
  C   C35       1.0  0.592278221282598  0.7727534966034783  0.15700728997571636  1.0000
  C   C36       1.0  0.37031027866737526  0.22178787963583357  0.11424521211625199  1.0000
  C   C37       1.0  0.5769752827536934  0.793664471993445  0.2409540244798833  1.0000
  C   C38       1.0  0.42150798153596  0.16168410682949744  0.16166225506420057  1.0000
  C   C39       1.0  0.07414418279225998  0.33645466441215893  0.6647514981486748  1.0000
  C   C40       1.0  0.8797745836443555  0.7404673761615187  0.746354257978474  1.0000
  C   C41       1.0  0.535132609178383  0.7693268896129769  0.3207366200514058  1.0000
  C   C42       1.0  0.5180772075009372  0.12793547132353922  0.19327211201769495  1.0000
  C   C43       1.0  0.9777114755253818  0.3644463801423969  0.6989880471421586  1.0000
  C   C44       1.0  0.8888643685383995  0.7889088797718244  0.8232578229922325  1.0000
  C   C45       1.0  0.9841972189725822  0.8468488303023493  0.6496773591048636  1.0000
  C   C46       1.0  0.032186482437033696  0.1743203981942543  0.62080585068842  1.0000
  C   C47       1.0  0.46841351925790775  0.3261815850376237  0.12529303621065677  1.0000
  C   C48       1.0  0.5052744322750442  0.6599632936827149  0.15459967515251088  1.0000
  C   C49       1.0  0.5850962048554462  0.8279426847271696  0.3677213799130924  1.0000
  C   C50       1.0  0.4741262407034128  0.064909852642117  0.23869771671567006  1.0000
  C   C51       1.0  0.01928971845681819  0.4259356902420138  0.7498626179650143  1.0000
  C   C52       1.0  0.8347902277272112  0.7341317807547015  0.8716643712976049  1.0000
  C   C53       1.0  0.3050985270280292  0.7982004449487479  0.8562592752634614  1.0000
  C   C54       1.0  0.6953850968967713  0.21544925931550551  0.8516688940095134  1.0000
  C   C55       1.0  0.8142619294032797  0.2881494867781171  0.3498356741116311  1.0000
  C   C56       1.0  0.19556670587382993  0.6996570200175469  0.3622784302845048  1.0000
  C   C57       1.0  0.826879862989884  0.31600171119909964  0.2727740705151831  1.0000
  C   C58       1.0  0.17651907391114458  0.6721313535093217  0.28648234554133  1.0000
  C   C59       1.0  0.3240345454289794  0.8240551123699262  0.7797519881405248  1.0000
  C   C60       1.0  0.6798835224821503  0.1861127050670035  0.7759224175266297  1.0000
  C   C61       1.0  0.2795037599540962  0.9035963442383449  0.6475450429216636  1.0000
  C   C62       1.0  0.7298956265609036  0.1000630435270295  0.649956647216058  1.0000
  C   C63       1.0  0.7717919652438637  0.4044766210555297  0.14883224256086433  1.0000
  C   C64       1.0  0.2220417537702203  0.5952077898377939  0.15369172921920438  1.0000
  C   C65       1.0  0.7321103714132204  0.9627580734461462  0.3656900835723319  1.0000
  C   C66       1.0  0.2631604052056389  0.034534744274978414  0.33890765547447893  1.0000
  C   C67       1.0  0.2311373543452432  0.46520089950824695  0.8465907444156567  1.0000
  C   C68       1.0  0.7433346119013393  0.5639212111232724  0.8746489174024532  1.0000
  C   C69       1.0  0.17625906590140517  0.9254420694581427  0.7480324720188704  1.0000
  C   C70       1.0  0.8383586195878934  0.09928617872276391  0.7449478146132404  1.0000
  C   C71       1.0  0.6676501021773619  0.4029500377469974  0.24664396099643673  1.0000
  C   C72       1.0  0.3240206992339338  0.5700224759548078  0.2557542833276472  1.0000
  C   C73       1.0  0.8349469567033905  0.9319683168794201  0.26628421851867046  1.0000
  C   C74       1.0  0.152613621602768  0.04345743282406291  0.24556001539588113  1.0000
  C   C75       1.0  0.3391818338203407  0.45734766547294475  0.7517599029630232  1.0000
  C   C76       1.0  0.6561311490151311  0.5665667394681152  0.7625274991370644  1.0000
  C   C77       1.0  0.8796339447534366  0.8485262663146643  0.5500013578153611  1.0000
  C   C78       1.0  0.14077567820563527  0.1567231360996644  0.5241389333430106  1.0000
  C   C79       1.0  0.3607458557485542  0.34595282358097285  0.027112171387216194  1.0000
  C   C80       1.0  0.6105155170551838  0.6580497155121707  0.056117523219071985  1.0000
  C   C81       1.0  0.17835297079449927  0.8150121182162593  0.4611080168694527  1.0000
  C   C82       1.0  0.8404175781989665  0.17977910499352134  0.4565674948866344  1.0000
  C   C83       1.0  0.6671690941226414  0.3248048020767058  0.9575908734946237  1.0000
  C   C84       1.0  0.32107777326979187  0.6859823028878297  0.9593763335218524  1.0000
  C   C85       1.0  0.14657150118333814  0.77146321577699  0.39758967196240036  1.0000
  C   C86       1.0  0.8656901026682957  0.2173863425802267  0.3852816800328397  1.0000
  C   C87       1.0  0.6418055973191912  0.2848638975600012  0.8878246491708096  1.0000
  C   C88       1.0  0.35333236910859256  0.7271616797276508  0.894176241461629  1.0000
  C   C89       1.0  0.6202128501238702  0.053418185511006314  0.4363398927744199  1.0000
  C   C90       1.0  0.3603480027240876  0.9992435441001888  0.4572470600129461  1.0000
  C   C91       1.0  0.1423568437354987  0.4935401691023529  0.9701279564594358  1.0000
  C   C92       1.0  0.897309657505204  0.5357053620829078  0.9229447552442094  1.0000
  N   N1        1.0  0.056012164646851714  0.889569034548039  0.4070258240539174  1.0000
  N   N2        1.0  0.9519979582802873  0.09773963990468103  0.3969287535179119  1.0000
  N   N3        1.0  0.548441963865656  0.4014185240628549  0.900382297118341  1.0000
  N   N4        1.0  0.44342087655043366  0.6091931750171681  0.9089410499541443  1.0000
  N   N5        1.0  0.9794425204220475  0.9116200806118827  0.6042251674995781  1.0000
  N   N6        1.0  0.0385829554225197  0.10325611050853922  0.5883239510518692  1.0000
  N   N7        1.0  0.46402175846499466  0.39733697587457334  0.09328990678552879  1.0000
  N   N8        1.0  0.5147381877741282  0.5927361731549964  0.11258273063453567  1.0000
  N   N9        1.0  0.20576488843442314  0.9535783601021637  0.6177840743622554  1.0000
  N   N10       1.0  0.807931469451013  0.055800058181716794  0.6208710524254214  1.0000
  N   N11       1.0  0.6923727191343827  0.4489701159333281  0.12259535202900909  1.0000
  N   N12       1.0  0.295958986206834  0.5459732868899466  0.12372961264224358  1.0000
  N   N13       1.0  0.8080916510052558  0.9881265795186355  0.3888637370352369  1.0000
  N   N14       1.0  0.19574562283891334  0.004221596242999202  0.3734426883849479  1.0000
  N   N15       1.0  0.2997250606811477  0.4947785321393853  0.8806575738962648  1.0000
  N   N16       1.0  0.6753422049090217  0.5271065277484085  0.8928614091187155  1.0000
  N   N17       1.0  0.14147486078179125  0.9670898421503864  0.6806530924601899  1.0000
  N   N18       1.0  0.8755271426092719  0.05544006720624852  0.680118967421137  1.0000
  N   N19       1.0  0.6274656099842418  0.44788972980564534  0.18351879077883373  1.0000
  N   N20       1.0  0.35938534294134417  0.5302732797979957  0.18761623161184804  1.0000
  N   N21       1.0  0.872432542361807  0.9694426242179757  0.3264953551255728  1.0000
  N   N22       1.0  0.12624529543391108  0.0093710741107813  0.3140225924855499  1.0000
  N   N23       1.0  0.36753283893887806  0.49004449990693644  0.8203259178866205  1.0000
  N   N24       1.0  0.6195519046830494  0.5296152444718633  0.8236721246280749  1.0000
  N   N25       1.0  0.9147764607714423  0.9128774371482749  0.5433473974743563  1.0000
  N   N26       1.0  0.10493062917314687  0.09247530189246331  0.5285659239416063  1.0000
  N   N27       1.0  0.398126149604579  0.4093689375023076  0.032586635519976384  1.0000
  N   N28       1.0  0.5794409770314745  0.5917596117725382  0.05236839819423269  1.0000
  N   N29       1.0  0.12408340659408174  0.885808067110517  0.46511229423355616  1.0000
  N   N30       1.0  0.892015008372688  0.10818211965959529  0.4620279226929256  1.0000
  N   N31       1.0  0.6113034312501925  0.39456611357432797  0.9636145508842799  1.0000
  N   N32       1.0  0.3749818591126726  0.6152464655526089  0.9665691344054607  1.0000
  O   O1        1.0  0.6566758265708259  0.9739027719728953  0.416450893093689  1.0000
  O   O2        1.0  0.34200089547899637  0.0401402984812478  0.379969966451938  1.0000
  O   O3        1.0  0.15336959228561398  0.45942056423520944  0.8887893579302567  1.0000
  O   O4        1.0  0.8030778808083453  0.5718098089828774  0.9377596521938542  1.0000
