data_image0
_chemical_formula_structural       Zn4H56C44S8O32
_chemical_formula_sum              "Zn4 H56 C44 S8 O32"
_cell_length_a       7.796873319
_cell_length_b       11.973084845
_cell_length_c       16.378
_cell_angle_alpha    90.0
_cell_angle_beta     90.0
_cell_angle_gamma    90.0

_space_group_name_H-M_alt    "P 1"
_space_group_IT_number       1

loop_
  _space_group_symop_operation_xyz
  'x, y, z'

loop_
  _atom_site_type_symbol
  _atom_site_label
  _atom_site_symmetry_multiplicity
  _atom_site_fract_x
  _atom_site_fract_y
  _atom_site_fract_z
  _atom_site_occupancy
  Zn  Zn1       1.0  0.621868510827859  0.2499990636289553  0.7500006105751638  1.0000
  Zn  Zn2       1.0  0.8781327744950642  0.2499990636289553  0.25  1.0000
  Zn  Zn3       1.0  0.3781323460540874  0.7500005317134324  0.25  1.0000
  Zn  Zn4       1.0  0.12186808238688228  0.7500005317134324  0.7500006105751638  1.0000
  H   H1        1.0  0.3927971989152183  0.5333729847130328  0.6149841250457939  1.0000
  H   H2        1.0  0.1072045120911653  0.5333721495063841  0.3850170961045336  1.0000
  H   H3        1.0  0.3927959163498115  0.9666255730939  0.8850158749542061  1.0000
  H   H4        1.0  0.10720579465657207  0.9666264083005418  0.1149847356209577  1.0000
  H   H5        1.0  0.6072023754013216  0.4666274458359965  0.3850158749542061  1.0000
  H   H6        1.0  0.8927950622253815  0.4666274458359965  0.6149829038954664  1.0000
  H   H7        1.0  0.6072036579667281  0.0333740222484806  0.1149841250457939  1.0000
  H   H8        1.0  0.8927950622253815  0.03337318704183901  0.8850158749542061  1.0000
  H   H9        1.0  0.04243111135252058  0.9923474320790222  0.7045274148247671  1.0000
  H   H10       1.0  0.45756675195763546  0.9923482672856637  0.2954725851752329  1.0000
  H   H11       1.0  0.042432393917927386  0.5076527961411941  0.7954731957503967  1.0000
  H   H12       1.0  0.45756803452304234  0.5076527961411941  0.2045268042496033  1.0000
  H   H13       1.0  0.9575671803986123  0.0076521632633586014  0.2954725851752329  1.0000
  H   H14       1.0  0.5424315397934976  0.0076521632633586014  0.7045274148247671  1.0000
  H   H15       1.0  0.9575684629640191  0.4923476344078281  0.2045268042496033  1.0000
  H   H16       1.0  0.5424328223589043  0.4923476344078281  0.7954731957503967  1.0000
  H   H17       1.0  0.08388106016885637  0.0970677160519173  0.7811307851996574  1.0000
  H   H18       1.0  0.4161180857067066  0.0970677160519173  0.2188698253755064  1.0000
  H   H19       1.0  0.08388106016885637  0.40293291682591104  0.718870435950663  1.0000
  H   H20       1.0  0.41611936827211327  0.4029320816192695  0.281129564049337  1.0000
  H   H21       1.0  0.9161172315822765  0.9029318792904633  0.2188698253755064  1.0000
  H   H22       1.0  0.5838814886098331  0.9029327144971049  0.7811301746244936  1.0000
  H   H23       1.0  0.9161197967130901  0.5970675137231112  0.2811301746244936  1.0000
  H   H24       1.0  0.5838814886098331  0.5970675137231112  0.718870435950663  1.0000
  H   H25       1.0  0.22500044931152263  0.08506496138506492  0.6949792404444963  1.0000
  H   H26       1.0  0.2749986965640474  0.0850657965917065  0.3050207595555037  1.0000
  H   H27       1.0  0.22500044931152263  0.4149356714927706  0.8050213701306603  1.0000
  H   H28       1.0  0.2750012616948608  0.414934836286129  0.1949786298693397  1.0000
  H   H29       1.0  0.7749991250050241  0.9149346339573157  0.3050213701306603  1.0000
  H   H30       1.0  0.7250008777524923  0.9149346339573157  0.6949780192941759  1.0000
  H   H31       1.0  0.7750004075704311  0.5850647590562517  0.1949786298693397  1.0000
  H   H32       1.0  0.7250021603178993  0.5850655942628934  0.8050213701306603  1.0000
  H   H33       1.0  0.9360829272696305  0.029598888222025707  0.5659579924288707  1.0000
  H   H34       1.0  0.5639157929224792  0.0295980530153841  0.4340413969959727  1.0000
  H   H35       1.0  0.9360829272696305  0.4704017446558098  0.9340420075711293  1.0000
  H   H36       1.0  0.5639196406186995  0.4704025798624514  0.0659579924288707  1.0000
  H   H37       1.0  0.06391664704690918  0.9704015423269965  0.4340413969959727  1.0000
  H   H38       1.0  0.4360824988286537  0.9704015423269965  0.5659579924288707  1.0000
  H   H39       1.0  0.06391664704690918  0.5295986858932197  0.0659579924288707  1.0000
  H   H40       1.0  0.4360850639594673  0.5295986858932197  0.9340420075711293  1.0000
  H   H41       1.0  0.11389950351455977  0.12295244033243342  0.5430742459396782  1.0000
  H   H42       1.0  0.3861009249264171  0.12295244033243342  0.4569263646354855  1.0000
  H   H43       1.0  0.11389822094915297  0.3770490277520438  0.956927585785813  1.0000
  H   H44       1.0  0.3861034900572307  0.3770490277520438  0.0430730247893507  1.0000
  H   H45       1.0  0.8861013533673939  0.8770471550099472  0.4569263646354855  1.0000
  H   H46       1.0  0.6138986493901226  0.8770471550099472  0.5430736353645145  1.0000
  H   H47       1.0  0.8861013533673939  0.6229530732102617  0.0430730247893507  1.0000
  H   H48       1.0  0.6138999319555294  0.6229530732102617  0.9569269752106491  1.0000
  H   H49       1.0  0.8988179893756223  0.167722022018296  0.5224813774575665  1.0000
  H   H50       1.0  0.6011820133818944  0.1677211868116544  0.4775186225424334  1.0000
  H   H51       1.0  0.8988179893756223  0.3322786108595396  0.977519843692761  1.0000
  H   H52       1.0  0.6011845785127077  0.3322786108595396  0.022480156307239  1.0000
  H   H53       1.0  0.10118286750633128  0.8322784085307264  0.4775192331175973  1.0000
  H   H54       1.0  0.3988175609346455  0.8322784085307264  0.5224807668824025  1.0000
  H   H55       1.0  0.10118286750633128  0.6677218196894829  0.0224807668824027  1.0000
  H   H56       1.0  0.3988188435000523  0.6677226548961315  0.9775192331175973  1.0000
  C   C1        1.0  0.3280840787506988  0.3791119881603109  0.5611607033825834  1.0000
  C   C2        1.0  0.17191763225568474  0.3791111529536622  0.4388417389180574  1.0000
  C   C3        1.0  0.328082796185292  0.1208861390975997  0.938839907192573  1.0000
  C   C4        1.0  0.17191506712487126  0.12088697430424132  0.0611588716570992  1.0000
  C   C5        1.0  0.671915495565848  0.6208884423887184  0.4388392966174165  1.0000
  C   C6        1.0  0.8280832246262617  0.6208892775953602  0.5611582610819426  1.0000
  C   C7        1.0  0.671915495565848  0.8791142914514296  0.0611588716570992  1.0000
  C   C8        1.0  0.828081942060855  0.879113456244781  0.938840517767737  1.0000
  C   C9        1.0  0.32953337766036117  0.4924829378839988  0.5639223348394182  1.0000
  C   C10       1.0  0.17046705078061555  0.4924821026773572  0.4360788863109021  1.0000
  C   C11       1.0  0.3295320950949544  0.0075160245805463  0.9360788863109022  1.0000
  C   C12       1.0  0.17046705078061555  0.0075160245805463  0.0639211136890978  1.0000
  C   C13       1.0  0.6704661966561858  0.5075174926650234  0.4360782757357455  1.0000
  C   C14       1.0  0.8295325235359243  0.5075183278716652  0.5639211136890978  1.0000
  C   C15       1.0  0.6704661966561858  0.9924844059684759  0.0639211136890978  1.0000
  C   C16       1.0  0.8295325235359243  0.9924835707618342  0.9360788863109022  1.0000
  C   C17       1.0  0.2500002142204849  0.5590856564250828  0.5  1.0000
  C   C18       1.0  0.2500002142204849  0.94091290138185  0.0  1.0000
  C   C19       1.0  0.7499993600960548  0.44091477412394653  0.5  1.0000
  C   C20       1.0  0.7499993600960548  0.059086693960530616  0.9999993894248362  1.0000
  C   C21       1.0  0.09247553095969607  0.0761833739431736  0.7161747466113084  1.0000
  C   C22       1.0  0.407523614915874  0.0761833739431736  0.2838252533886916  1.0000
  C   C23       1.0  0.09247681352510277  0.4238172589346618  0.7838264745390191  1.0000
  C   C24       1.0  0.4075248974812807  0.4238155885213716  0.2161735254609809  1.0000
  C   C25       1.0  0.9075227607914369  0.9238162213992069  0.2838252533886916  1.0000
  C   C26       1.0  0.5924759594006659  0.9238162213992069  0.7161747466113084  1.0000
  C   C27       1.0  0.9075253259222504  0.5761831716143675  0.21617413603614463  1.0000
  C   C28       1.0  0.5924772419660727  0.5761840068210091  0.7838258639638553  1.0000
  C   C29       1.0  0.9796208925682064  0.116568120753179  0.5623910123336202  1.0000
  C   C30       1.0  0.52037911018931  0.1165672855465374  0.4376089876663798  1.0000
  C   C31       1.0  0.9796196100027996  0.3834333473312981  0.9376102088167073  1.0000
  C   C32       1.0  0.5203816753201236  0.3834341825379397  0.0623904017584564  1.0000
  C   C33       1.0  0.020378681748333294  0.8834323097958505  0.4376089876663798  1.0000
  C   C34       1.0  0.4796191815618228  0.8834323097958505  0.5623910123336202  1.0000
  C   C35       1.0  0.020379964313740093  0.6165679184243658  0.0623904017584564  1.0000
  C   C36       1.0  0.4796217466926364  0.6165687536310145  0.9376095982415436  1.0000
  C   C37       1.0  0.4102195674009223  0.3024258198180334  0.6230339479789961  1.0000
  C   C38       1.0  0.08978086104004747  0.30242498461139183  0.3769691048968156  1.0000
  C   C39       1.0  0.4102195674009223  0.19757230743987012  0.8769672731713243  1.0000
  C   C40       1.0  0.0897795784746407  0.1975739778531604  0.1230315056783482  1.0000
  C   C41       1.0  0.5897800069156174  0.6975754459376304  0.3769672731713243  1.0000
  C   C42       1.0  0.9102187132764923  0.6975754459376304  0.6230308951031844  1.0000
  C   C43       1.0  0.5897800069156174  0.8024281231091521  0.12303211625351199  1.0000
  C   C44       1.0  0.910219995841899  0.8024272879025105  0.876967883746488  1.0000
  S   S1        1.0  0.9647290256300776  0.1755153352043237  0.662161436072779  1.0000
  S   S2        1.0  0.5352709771274391  0.1755153352043237  0.337838563927221  1.0000
  S   S3        1.0  0.9647303081954843  0.324484462466863  0.8378397850775414  1.0000
  S   S4        1.0  0.5352722596928456  0.32448362726022145  0.1621602149224586  1.0000
  S   S5        1.0  0.03527054868646928  0.8244834249314152  0.337838563927221  1.0000
  S   S6        1.0  0.4647285971891008  0.8244834249314152  0.6621608254976223  1.0000
  S   S7        1.0  0.03527054868646928  0.6755159680821592  0.1621608254976152  1.0000
  S   S8        1.0  0.4647311623199143  0.6755168032888008  0.8378391745023777  1.0000
  O   O1        1.0  0.2500002142204849  0.3215236549173568  0.5000012211503204  1.0000
  O   O2        1.0  0.24999764908967134  0.1784744723405467  0.9999987788496795  1.0000
  O   O3        1.0  0.7499993600960548  0.6784759404250238  0.4999987788496796  1.0000
  O   O4        1.0  0.7499980775306483  0.8215251230018339  0.9999993894248362  1.0000
  O   O5        1.0  0.2500014967858917  0.6636735730907618  0.5  1.0000
  O   O6        1.0  0.2500002142204849  0.836325819922813  6.105751638e-07  1.0000
  O   O7        1.0  0.7499980775306483  0.3363268574582606  0.5  1.0000
  O   O8        1.0  0.7500006426614616  0.1636737754195678  0.9999993894248362  1.0000
  O   O9        1.0  0.7794675828822475  0.1485790857602467  0.6888197582122331  1.0000
  O   O10       1.0  0.720532419875269  0.1485790857602467  0.3111796312126032  1.0000
  O   O11       1.0  0.7794688654476545  0.3514198767042985  0.8111802417877669  1.0000
  O   O12       1.0  0.7205337024406757  0.3514198767042985  0.1888203687873968  1.0000
  O   O13       1.0  0.2205307088688926  0.8514213447887755  0.3111796312126032  1.0000
  O   O14       1.0  0.2794684370066775  0.8514205095821339  0.6888203687873968  1.0000
  O   O15       1.0  0.22053327399970604  0.6485797186380822  0.1888197582122331  1.0000
  O   O16       1.0  0.2794697195720843  0.6485797186380822  0.8111802417877669  1.0000
  O   O17       1.0  0.5031491265146213  0.35403741432352837  0.6763786787153521  1.0000
  O   O18       1.0  0.9968534413737088  0.3540349087035963  0.3236231530101321  1.0000
  O   O19       1.0  0.5031491265146213  0.1459615481410239  0.8236225424349755  1.0000
  O   O20       1.0  0.9968521588083019  0.1459632185543072  0.1763774575650245  1.0000
  O   O21       1.0  0.4968517303673251  0.6459638514321426  0.3236213212846479  1.0000
  O   O22       1.0  0.003144850377424299  0.6459646866387844  0.6763774575650243  1.0000
  O   O23       1.0  0.4968517303673251  0.8540380472013567  0.1763774575650245  1.0000
  O   O24       1.0  0.0031474155082377993  0.854037211994715  0.8236225424349755  1.0000
  O   O25       1.0  0.3841501429427011  0.1998657848816094  0.6191384784466933  1.0000
  O   O26       1.0  0.1158490029328618  0.1998649496749607  0.3808639638539475  1.0000
  O   O27       1.0  0.384151425508108  0.300132342376294  0.8808609109781427  1.0000
  O   O28       1.0  0.1158490029328618  0.3001340127895844  0.1191354255708887  1.0000
  O   O29       1.0  0.6158468662430252  0.8001354808740616  0.3808633532787908  1.0000
  O   O30       1.0  0.8841518539490849  0.8001354808740616  0.6191354255708887  1.0000
  O   O31       1.0  0.6158481488084318  0.6998672529660867  0.1191378678715367  1.0000
  O   O32       1.0  0.8841531365144915  0.6998664177594378  0.8808627427036271  1.0000
