data_image0
_chemical_formula_structural       Zn2H14C24N2O8
_chemical_formula_sum              "Zn2 H14 C24 N2 O8"
_cell_length_a       9.734672651090156
_cell_length_b       11.083852709699801
_cell_length_c       14.138122142136682
_cell_angle_alpha    88.58885060852015
_cell_angle_beta     98.72831859499252
_cell_angle_gamma    89.93619517640836

_space_group_name_H-M_alt    "P 1"
_space_group_IT_number       1

loop_
  _space_group_symop_operation_xyz
  'x, y, z'

loop_
  _atom_site_type_symbol
  _atom_site_label
  _atom_site_symmetry_multiplicity
  _atom_site_fract_x
  _atom_site_fract_y
  _atom_site_fract_z
  _atom_site_occupancy
  Zn  Zn1       1.0  0.6374579240492437  0.5041839964746586  0.5052224007060033  1.0000
  Zn  Zn2       1.0  0.350452900825033  0.504321782383407  0.49365165520796955  1.0000
  H   H1        1.0  0.658897466724362  0.49257396191452335  0.0229508356524235  1.0000
  H   H2        1.0  0.8299389634929071  0.1171834806351626  0.5029099565376357  1.0000
  H   H3        1.0  0.0922548541474413  0.6106750269242341  0.3730420648039185  1.0000
  H   H4        1.0  0.8335945361005701  0.6112123713535025  0.376740133362219  1.0000
  H   H5        1.0  0.9174604702615881  0.4184335257835201  0.7195436814513914  1.0000
  H   H6        1.0  0.7993176419950744  0.10575372708277092  0.6243583325724416  1.0000
  H   H7        1.0  0.8993621929046614  0.28583166668108373  0.6497207146044135  1.0000
  H   H8        1.0  0.17901442737830567  0.4162628095174696  0.7155106824013019  1.0000
  H   H9        1.0  0.15929888117975116  0.28342549335908973  0.6458928448567748  1.0000
  H   H10       1.0  0.33874503078332924  0.5051174999784253  0.9764940513540169  1.0000
  H   H11       1.0  0.2724992709405143  0.1199670725314093  0.45252499181791717  1.0000
  H   H12       1.0  0.27010310632301343  0.8957733439839402  0.4496707974643784  1.0000
  H   H13       1.0  0.799544400254888  0.8801070690580061  0.6169881087218699  1.0000
  H   H14       1.0  0.8264592409286282  0.889683567733819  0.4950631553517014  1.0000
  C   C1        1.0  0.492587197657521  0.268722213995666  0.5008259516624706  1.0000
  C   C2        1.0  0.7694919281572795  0.0704215065678397  0.5521705985993891  1.0000
  C   C3        1.0  0.08208121792544891  0.44923091890324673  0.5657528791237213  1.0000
  C   C4        1.0  0.5348746841864839  0.5011239514894541  0.6884012984849832  1.0000
  C   C5        1.0  0.0483034973890284  0.5639924330588642  0.43014901678918704  1.0000
  C   C6        1.0  0.9055166879412654  0.5646245292684142  0.4322901514644145  1.0000
  C   C7        1.0  0.9393307887496933  0.45025802495457157  0.5680258303714327  1.0000
  C   C8        1.0  0.9512760016696407  0.37353873636617857  0.6586257125829037  1.0000
  C   C9        1.0  0.11422442775362641  0.3720936452611099  0.6560727812994358  1.0000
  C   C10       1.0  0.4889556183778581  0.7396380966497417  0.4936871767612702  1.0000
  C   C11       1.0  0.45946963864657436  0.505329119051197  0.31077825885083143  1.0000
  C   C12       1.0  0.5461975242787604  0.4977792584661388  0.7916123471529489  1.0000
  C   C13       1.0  0.4485929089186414  0.5045241787802794  0.20767885662536406  1.0000
  C   C14       1.0  0.44068454988308065  0.5014522033603868  0.021419311076186918  1.0000
  C   C15       1.0  0.5567931425421975  0.4963102915841802  0.9782841561314088  1.0000
  C   C16       1.0  0.5512071071084179  0.4965107756226246  0.8784831316950203  1.0000
  C   C17       1.0  0.44532392631371215  0.50282453189201  0.1210495871922177  1.0000
  C   C18       1.0  0.6139724751540357  0.065274130930753  0.5190607243574732  1.0000
  C   C19       1.0  0.493117348203441  0.1343492764691305  0.4971799277571024  1.0000
  C   C20       1.0  0.36908878366870823  0.06909906483830501  0.4713154303269605  1.0000
  C   C21       1.0  0.36783560833927004  0.9433187967732336  0.46929855393840114  1.0000
  C   C22       1.0  0.4906869557907499  0.8741360775596619  0.4925931351792699  1.0000
  C   C23       1.0  0.6127866237207585  0.9393111890728177  0.5164119725873633  1.0000
  C   C24       1.0  0.7682598219748088  0.9279724212134394  0.5481128626834177  1.0000
  N   N1        1.0  0.1400873446777737  0.5049355615493099  0.4977496013459658  1.0000
  N   N2        1.0  0.8480320692454629  0.5065642865829998  0.502418887552942  1.0000
  O   O1        1.0  0.6104543175376804  0.3209339620271833  0.5086394760817683  1.0000
  O   O2        1.0  0.375093809990176  0.3213745163242265  0.49600903946120684  1.0000
  O   O3        1.0  0.6480283350292526  0.5016842859041761  0.6534566961815643  1.0000
  O   O4        1.0  0.4117671573281428  0.503243955174483  0.6421995839249918  1.0000
  O   O5        1.0  0.6068581072469501  0.686680700383242  0.5019739822763826  1.0000
  O   O6        1.0  0.3713442001025201  0.6875349192506377  0.4874046925671892  1.0000
  O   O7        1.0  0.5827420004436235  0.5060151086806428  0.35680633391373123  1.0000
  O   O8        1.0  0.3464416565747826  0.5048739343927409  0.34580819444366284  1.0000
