data_image0
_chemical_formula_structural       CdH8C8S2N4O2
_chemical_formula_sum              "Cd1 H8 C8 S2 N4 O2"
_cell_length_a       5.77557266435236
_cell_length_b       7.151732981930182
_cell_length_c       7.483530035478142
_cell_angle_alpha    72.57812532055829
_cell_angle_beta     86.9071722392418
_cell_angle_gamma    87.07492913643762

_space_group_name_H-M_alt    "P 1"
_space_group_IT_number       1

loop_
  _space_group_symop_operation_xyz
  'x, y, z'

loop_
  _atom_site_type_symbol
  _atom_site_label
  _atom_site_symmetry_multiplicity
  _atom_site_fract_x
  _atom_site_fract_y
  _atom_site_fract_z
  _atom_site_occupancy
  Cd  Cd1       1.0  0.49998869620449676  0.5000068497749196  0.9999962372174803  1.0000
  H   H1        1.0  0.1151381988959841  0.8025673878114004  0.266126819002217  1.0000
  H   H2        1.0  0.8848709080179019  0.1974194940898428  0.7338716757813017  1.0000
  H   H3        1.0  0.33115654238277165  0.12724847602202516  0.4177485212309405  1.0000
  H   H4        1.0  0.6688574735867832  0.8727485443399556  0.5822549623119643  1.0000
  H   H5        1.0  0.2573623697003883  0.04089164054354201  0.6647188942041209  1.0000
  H   H6        1.0  0.7426398259324218  0.9590952234375719  0.3352813009004478  1.0000
  H   H7        1.0  0.48590047540916004  0.2081210850015367  0.5768261555793613  1.0000
  H   H8        1.0  0.5141107545347412  0.7918626366006973  0.42318779580902094  1.0000
  C   C1        1.0  0.9928984602425857  0.7481489151224068  0.9117736038114755  1.0000
  C   C2        1.0  0.0070867779926402025  0.2518730230314786  0.08822588933299613  1.0000
  C   C3        1.0  0.05850196042558051  0.6698375765188942  0.3714565051395268  1.0000
  C   C4        1.0  0.9415123291109353  0.33015355789864725  0.6285499120108256  1.0000
  C   C5        1.0  0.14905440766777642  0.33602835548453663  0.5272575431436407  1.0000
  C   C6        1.0  0.8509579849327268  0.6639671579615153  0.47274911026018884  1.0000
  C   C7        1.0  0.3142180156646078  0.16655832050589936  0.549329472847205  1.0000
  C   C8        1.0  0.6857909859598833  0.8334343029074417  0.45067547476327263  1.0000
  S   S1        1.0  0.735522895996418  0.8407831142699465  0.9436178181798595  1.0000
  S   S2        1.0  0.2644498883466611  0.15924192635296913  0.056370780220127925  1.0000
  N   N1        1.0  0.18021201032763656  0.6838162842086316  0.8852905074936855  1.0000
  N   N2        1.0  0.8197575421862026  0.31621138092857143  0.11471758805110709  1.0000
  N   N3        1.0  0.20618647339242105  0.5103378567639537  0.3969365042814914  1.0000
  N   N4        1.0  0.7938261446957425  0.489651812004034  0.603070400891383  1.0000
  O   O1        1.0  0.4055354146613368  0.5240183174164199  0.3038671948548668  1.0000
  O   O2        1.0  0.5944740138988109  0.47596263727398735  0.6961369153744881  1.0000
