data_image0
_chemical_formula_structural       Zn8H96C120S8N24O32
_chemical_formula_sum              "Zn8 H96 C120 S8 N24 O32"
_cell_length_a       12.297236471232441
_cell_length_b       20.104577958369603
_cell_length_c       20.104609938434056
_cell_angle_alpha    102.61771765031662
_cell_angle_beta     94.88550064361344
_cell_angle_gamma    94.88546652468676

_space_group_name_H-M_alt    "P 1"
_space_group_IT_number       1

loop_
  _space_group_symop_operation_xyz
  'x, y, z'

loop_
  _atom_site_type_symbol
  _atom_site_label
  _atom_site_symmetry_multiplicity
  _atom_site_fract_x
  _atom_site_fract_y
  _atom_site_fract_z
  _atom_site_occupancy
  Zn  Zn1       1.0  0.9041562536746426  0.5292839329965843  0.017086262064850564  1.0000
  Zn  Zn2       1.0  0.5958415621134135  0.9829126992998664  0.47071676765277465  1.0000
  Zn  Zn3       1.0  0.09584253751547318  0.4707177883735767  0.9829133783783633  1.0000
  Zn  Zn4       1.0  0.4041565991064146  0.017085433955067196  0.5292830520758827  1.0000
  Zn  Zn5       1.0  0.7029656067307924  0.790620105387731  0.05922755972133586  1.0000
  Zn  Zn6       1.0  0.7970349504195227  0.9407708911167202  0.20937859101460518  1.0000
  Zn  Zn7       1.0  0.2970343671825759  0.2093790506352562  0.9407720824422441  1.0000
  Zn  Zn8       1.0  0.2029667467235399  0.059228775038846486  0.7906207570999868  1.0000
  H   H1        1.0  0.8536831079851693  0.6749905028092513  0.07485289402075067  1.0000
  H   H2        1.0  0.6463172746014648  0.9251472256226445  0.32500901573471447  1.0000
  H   H3        1.0  0.1463169572537097  0.32500916568268673  0.9251463672903455  1.0000
  H   H4        1.0  0.3536836960533591  0.07485295433657058  0.674990405462033  1.0000
  H   H5        1.0  0.7881737794651329  0.654207390529187  0.989146823956368  1.0000
  H   H6        1.0  0.7118256641044028  0.010853500503095897  0.34579225670953667  1.0000
  H   H7        1.0  0.21182555742385742  0.345792791932915  0.01085300777327796  1.0000
  H   H8        1.0  0.28817539415262433  0.989147192258102  0.654207778307523  1.0000
  H   H9        1.0  0.6727362976388278  0.5462393008449381  0.94780886403057  1.0000
  H   H10       1.0  0.8272635968842935  0.05219111038059049  0.45376101238963434  1.0000
  H   H11       1.0  0.3272639446661146  0.4537613930844415  0.0521911275847344  1.0000
  H   H12       1.0  0.17273646463128506  0.9478085584443717  0.5462392435942505  1.0000
  H   H13       1.0  0.6499604715087415  0.48980099302760044  0.004186393337121787  1.0000
  H   H14       1.0  0.850040020137257  0.9958138692376437  0.5101986805946126  1.0000
  H   H15       1.0  0.350040407820579  0.5101986744626643  0.9958134087121238  1.0000
  H   H16       1.0  0.1499592272878729  0.004185800588984999  0.4898010346511228  1.0000
  H   H17       1.0  0.7386851906487664  0.5192543227326423  0.11980097385935548  1.0000
  H   H18       1.0  0.7613165958765788  0.8801995517881733  0.4807461208887743  1.0000
  H   H19       1.0  0.2613158676082604  0.480746370028555  0.880199061157697  1.0000
  H   H20       1.0  0.2386835569645029  0.11980062950573966  0.5192537542426194  1.0000
  H   H21       1.0  0.8242805582023253  0.5983565809809904  0.15022308740662993  1.0000
  H   H22       1.0  0.6757197880704454  0.8497769710357018  0.40164310364931305  1.0000
  H   H23       1.0  0.17572032112698818  0.4016430865092743  0.8497767146426086  1.0000
  H   H24       1.0  0.3242795488185449  0.15022321142639325  0.5983567280803328  1.0000
  H   H25       1.0  0.5120627871802839  0.6756577551855896  0.03718850849838154  1.0000
  H   H26       1.0  0.9879374542329276  0.962811617501245  0.32434196042994756  1.0000
  H   H27       1.0  0.4879372724736371  0.3243419138058883  0.9628122448218975  1.0000
  H   H28       1.0  0.0120643286506876  0.03718856162281269  0.6756584988413508  1.0000
  H   H29       1.0  0.5939711477202536  0.6541622471132342  0.9674291331140595  1.0000
  H   H30       1.0  0.9060291288328415  0.03257061634444369  0.3458370481712691  1.0000
  H   H31       1.0  0.4060288243314644  0.3458369090762615  0.032571006385914786  1.0000
  H   H32       1.0  0.09397165917096824  0.9674285386768698  0.6541631347304601  1.0000
  H   H33       1.0  0.5434301746696946  0.5195071628657502  0.09683746182743387  1.0000
  H   H34       1.0  0.9565708881403764  0.9031635361363543  0.48049258712413934  1.0000
  H   H35       1.0  0.4565706990746676  0.4804925051240545  0.9031638322309945  1.0000
  H   H36       1.0  0.0434291733752019  0.0968361326886082  0.5195076688597453  1.0000
  H   H37       1.0  0.4847202652243965  0.599418457594588  0.11175015714197659  1.0000
  H   H38       1.0  0.015280701280779864  0.8882499472705303  0.40058176375340077  1.0000
  H   H39       1.0  0.5152806122432664  0.4005812100621923  0.8882501422436563  1.0000
  H   H40       1.0  0.9847193602347913  0.11174972155443189  0.5994184922304839  1.0000
  H   H41       1.0  0.7440657432466011  0.7046989303639464  0.17011577076505094  1.0000
  H   H42       1.0  0.755935213822461  0.8298841771979111  0.2953012075842948  1.0000
  H   H43       1.0  0.2559352255465726  0.2953012497617848  0.8298841477680982  1.0000
  H   H44       1.0  0.24406321951223478  0.17011549363039077  0.7046979669232911  1.0000
  H   H45       1.0  0.5990629637014209  0.7051814546265689  0.1533817255432695  1.0000
  H   H46       1.0  0.9009371738183632  0.8466179619412555  0.2948185563514798  1.0000
  H   H47       1.0  0.40093718913966114  0.2948187266673442  0.8466181495881244  1.0000
  H   H48       1.0  0.09906207546842438  0.15338170771886436  0.7051806615578614  1.0000
  H   H49       1.0  0.7738251503140674  0.3926633253201217  0.13806603339802584  1.0000
  H   H50       1.0  0.7261748971108375  0.8619339950816494  0.6073366476376094  1.0000
  H   H51       1.0  0.2261722881408303  0.6073353214054293  0.8619328647399982  1.0000
  H   H52       1.0  0.273827701724862  0.13806618287422617  0.39266385503543694  1.0000
  H   H53       1.0  0.7200510759182988  0.29777007621857615  0.19462499609803527  1.0000
  H   H54       1.0  0.7799498904668097  0.8053750912200567  0.7022298123879338  1.0000
  H   H55       1.0  0.2799480820429849  0.702229080972593  0.8053746026637967  1.0000
  H   H56       1.0  0.22005297676045643  0.19462662464221833  0.2977710397368298  1.0000
  H   H57       1.0  0.7571908611736403  0.18703838821427604  0.22372608759823723  1.0000
  H   H58       1.0  0.7428106399723903  0.7762743149899406  0.8129616001668722  1.0000
  H   H59       1.0  0.24281019894503686  0.8129623043804057  0.7762734500824209  1.0000
  H   H60       1.0  0.2571911429112177  0.223725864134117  0.1870388591044261  1.0000
  H   H61       1.0  0.04010512490553  0.09061719643212739  0.155977716667806  1.0000
  H   H62       1.0  0.4598956686882402  0.8440227413735641  0.9093827244014392  1.0000
  H   H63       1.0  0.9598960209536996  0.9093840091310451  0.8440229321695512  1.0000
  H   H64       1.0  0.5401065670996061  0.15598000042827923  0.09061682528020042  1.0000
  H   H65       1.0  0.0998128394904825  0.18962772837786449  0.10710997400450138  1.0000
  H   H66       1.0  0.4001883438984706  0.8928908065602597  0.8103715237227292  1.0000
  H   H67       1.0  0.9001874009528024  0.8103729657180307  0.8928905149471902  1.0000
  H   H68       1.0  0.5998153485891393  0.10711090730126217  0.1896268851218039  1.0000
  H   H69       1.0  0.06615532990770129  0.30065751394310775  0.08149424136169607  1.0000
  H   H70       1.0  0.4338444054704383  0.9185038378055382  0.6993415461305901  1.0000
  H   H71       1.0  0.9338432879396665  0.6993431816565874  0.918503674104521  1.0000
  H   H72       1.0  0.5661564775821758  0.0814958293516952  0.3006572612458598  1.0000
  H   H73       1.0  0.3284319421702122  0.6015074446845432  0.13280644036628084  1.0000
  H   H74       1.0  0.17156713778618382  0.8671937566905611  0.39849139314646453  1.0000
  H   H75       1.0  0.671568123068667  0.39849222380739485  0.8671928209448154  1.0000
  H   H76       1.0  0.8284328305422335  0.13280539983195885  0.6015097410263053  1.0000
  H   H77       1.0  0.038189496554480215  0.6810224247320206  0.2062905758601303  1.0000
  H   H78       1.0  0.4618088417253858  0.7937110720411978  0.3189754881963651  1.0000
  H   H79       1.0  0.9618098366112093  0.31897775806309875  0.7937102505423042  1.0000
  H   H80       1.0  0.5381896754882121  0.20628911192211058  0.6810252948043214  1.0000
  H   H81       1.0  0.44682801730034777  0.6907204262635389  0.22273163883352956  1.0000
  H   H82       1.0  0.053173100648962204  0.7772678045035517  0.3092804104637992  1.0000
  H   H83       1.0  0.5531729514928188  0.30927975386219225  0.7772682796996123  1.0000
  H   H84       1.0  0.9468277730954002  0.22273186348625268  0.6907208835946222  1.0000
  H   H85       1.0  0.026757867413621718  0.745501039299043  0.036589482989810976  1.0000
  H   H86       1.0  0.4732423195547567  0.9634104291860904  0.2544977960139149  1.0000
  H   H87       1.0  0.973245187657092  0.2544970871133074  0.9634110944857568  1.0000
  H   H88       1.0  0.5267561976588411  0.036589754777210694  0.7455029869867644  1.0000
  H   H89       1.0  0.08183234307077207  0.91476783461605  0.21291981644110075  1.0000
  H   H90       1.0  0.418168465865861  0.7870810977890556  0.08523117989871302  1.0000
  H   H91       1.0  0.918166816752162  0.08523132240860319  0.787079284984337  1.0000
  H   H92       1.0  0.581834405084713  0.21292061774018822  0.9147686775532621  1.0000
  H   H93       1.0  0.22774003740151735  0.740443620870792  0.03549793923282609  1.0000
  H   H94       1.0  0.27225958302718584  0.9645011629397333  0.25955675609211687  1.0000
  H   H95       1.0  0.7722617492053986  0.2595565579202415  0.9645015253656765  1.0000
  H   H96       1.0  0.7277388447225588  0.035498508388109  0.7404439104246593  1.0000
  C   C1        1.0  0.7791170847406264  0.6502507265454937  0.04193986774566128  1.0000
  C   C2        1.0  0.720882509849119  0.9580602516396509  0.34974889228406875  1.0000
  C   C3        1.0  0.220882252148364  0.3497494559166013  0.9580599639839775  1.0000
  C   C4        1.0  0.2791176429919631  0.0419399296542693  0.6502509828473322  1.0000
  C   C5        1.0  0.661700919904618  0.543647384929116  0.0008396622023951861  1.0000
  C   C6        1.0  0.8382995459736833  0.9991607402708027  0.4563522921542286  1.0000
  C   C7        1.0  0.33829914161096036  0.45635228389584614  0.9991605937814897  1.0000
  C   C8        1.0  0.1617006050057483  0.0008394411896190997  0.5436480803135666  1.0000
  C   C9        1.0  0.7490963862565964  0.5734738020635601  0.11784967267007564  1.0000
  C   C10       1.0  0.7509058254781421  0.8821507814138554  0.4265260181661218  1.0000
  C   C11       1.0  0.250905398488662  0.4265263768939888  0.8821502892648285  1.0000
  C   C12       1.0  0.2490943273629398  0.11784939988005756  0.573473856965272  1.0000
  C   C13       1.0  0.5830140329610884  0.6495801520295004  0.019933986296180664  1.0000
  C   C14       1.0  0.9169857331016402  0.9800665619784682  0.3504194291011942  1.0000
  C   C15       1.0  0.4169852126023912  0.3504195179636511  0.9800662262859491  1.0000
  C   C16       1.0  0.0830152356915335  0.019933618147263098  0.6495804894319548  1.0000
  C   C17       1.0  0.555987771991326  0.5737188440914095  0.09466455149615874  1.0000
  C   C18       1.0  0.9440135550257552  0.9053357882054983  0.42628090136759783  1.0000
  C   C19       1.0  0.4440131930785469  0.4262813363673458  0.9053363617097787  1.0000
  C   C20       1.0  0.05598650835147369  0.09466388045294848  0.5737188572798857  1.0000
  C   C21       1.0  0.6699921376791593  0.6788190801527562  0.13695531437713265  1.0000
  C   C22       1.0  0.8300079547945318  0.8630438884141044  0.32118066956579133  1.0000
  C   C23       1.0  0.3300079256980695  0.3211805885056903  0.8630444442703578  1.0000
  C   C24       1.0  0.1699921067210397  0.13695578041085804  0.6788195864180935  1.0000
  C   C25       1.0  0.9522238276345903  0.40798427469326265  0.07043365652211973  1.0000
  C   C26       1.0  0.5477672294730453  0.9295695350992614  0.5920194232102034  1.0000
  C   C27       1.0  0.04776705753297961  0.5920189975972363  0.9295698780464576  1.0000
  C   C28       1.0  0.4522207605189834  0.07043117751846488  0.40798339873359174  1.0000
  C   C29       1.0  0.9231558382360417  0.35197865157533664  0.10608564265938009  1.0000
  C   C30       1.0  0.5768415564262099  0.8939113375475217  0.6480207509204022  1.0000
  C   C31       1.0  0.0768402422911976  0.6480215348934449  0.8939120261176682  1.0000
  C   C32       1.0  0.4231583280233053  0.10608730583999908  0.35197877475927447  1.0000
  C   C33       1.0  0.8249216472347598  0.3510790842813377  0.1385689496875955  1.0000
  C   C34       1.0  0.6750780855438521  0.8614300552141713  0.6489207301644058  1.0000
  C   C35       1.0  0.17507524365961302  0.6489211015187948  0.8614302545003909  1.0000
  C   C36       1.0  0.32492279192381085  0.13856961244260899  0.351079569221227  1.0000
  C   C37       1.0  0.7954859771667628  0.2987585098955492  0.1697377244563896  1.0000
  C   C38       1.0  0.7045163675685657  0.8302621167288604  0.7012408665646889  1.0000
  C   C39       1.0  0.2045140880721164  0.7012411585963888  0.8302615368547066  1.0000
  C   C40       1.0  0.2954872280085823  0.16973908516325045  0.29875941514152515  1.0000
  C   C41       1.0  0.8620042324284752  0.24424368352741505  0.1692078192604498  1.0000
  C   C42       1.0  0.6379967410433807  0.8307922951165448  0.7557563589004347  1.0000
  C   C43       1.0  0.1379958346720542  0.7557559847980072  0.830790944714245  1.0000
  C   C44       1.0  0.3620071210636909  0.16921044484847408  0.2442447695938981  1.0000
  C   C45       1.0  0.8322406253312807  0.18846413477348276  0.1985702893384556  1.0000
  C   C46       1.0  0.6677614619035167  0.8014303339557144  0.8115360251559522  1.0000
  C   C47       1.0  0.1677596169736546  0.8115365591558967  0.8014297022768418  1.0000
  C   C48       1.0  0.3322422249991419  0.19857138040534747  0.1884638756977779  1.0000
  C   C49       1.0  0.8950735818742219  0.1339188086948653  0.19352360929667614  1.0000
  C   C50       1.0  0.6049277701916935  0.8064774301251771  0.8660804363294617  1.0000
  C   C51       1.0  0.10492593021918134  0.8660823993711868  0.8064774500735723  1.0000
  C   C52       1.0  0.3950743724089918  0.19352479937423078  0.1339199915410632  1.0000
  C   C53       1.0  0.992802848814854  0.1344595048235532  0.1604894230860481  1.0000
  C   C54       1.0  0.5071982175029248  0.8395113284622867  0.8655403803447826  1.0000
  C   C55       1.0  0.007197482953941454  0.8655417017412932  0.8395106850131598  1.0000
  C   C56       1.0  0.4928063748156859  0.16049089736605984  0.134459680394599  1.0000
  C   C57       1.0  0.025519506266299202  0.18904768463626445  0.1331376297575133  1.0000
  C   C58       1.0  0.47448121175695224  0.8668624317134572  0.8109522686899168  1.0000
  C   C59       1.0  0.9744800114120551  0.8109535229302479  0.8668619376035452  1.0000
  C   C60       1.0  0.525523754779421  0.1331372292698347  0.18904576102249854  1.0000
  C   C61       1.0  0.9609656166025785  0.2447815717786027  0.13618323505112068  1.0000
  C   C62       1.0  0.5390358654175031  0.8638151603297429  0.7552181522114694  1.0000
  C   C63       1.0  0.039033727733020405  0.7552186100174365  0.8638146073329337  1.0000
  C   C64       1.0  0.4609703606669342  0.13618706299572378  0.24478149799502094  1.0000
  C   C65       1.0  0.9902125024824429  0.29994266273180864  0.10577199755544338  1.0000
  C   C66       1.0  0.5097840156858028  0.8942251082893121  0.7000573722253804  1.0000
  C   C67       1.0  0.009783671231943543  0.7000580360394082  0.89422479303272  1.0000
  C   C68       1.0  0.4902154050820897  0.10577558730778952  0.2999440679973588  1.0000
  C   C69       1.0  0.8527566784856403  0.0723424208702994  0.21761730037653143  1.0000
  C   C70       1.0  0.6472447072302714  0.7823823240910811  0.9276569817215262  1.0000
  C   C71       1.0  0.1472444692352397  0.9276587845263646  0.7823828511244316  1.0000
  C   C72       1.0  0.3527571688404976  0.21761836733541876  0.07234259936087989  1.0000
  C   C73       1.0  0.1098357871034708  0.585647520458778  0.1073380257477652  1.0000
  C   C74       1.0  0.3901578783713974  0.8926636390697954  0.41435556906288445  1.0000
  C   C75       1.0  0.8901605543687269  0.41435420458244465  0.8926619818265848  1.0000
  C   C76       1.0  0.6098318311270106  0.10733758401353548  0.5856479535047114  1.0000
  C   C77       1.0  0.17698992179652606  0.6371164731794534  0.16434189761738335  1.0000
  C   C78       1.0  0.3230074272520583  0.8356570025223747  0.3628810846776105  1.0000
  C   C79       1.0  0.8230100558401432  0.36288268251050226  0.835656749873401  1.0000
  C   C80       1.0  0.6769889268591811  0.16434010746496597  0.6371174206069412  1.0000
  C   C81       1.0  0.293070395876029  0.6395305191714724  0.1695525783182602  1.0000
  C   C82       1.0  0.20692743478125664  0.8304484916585647  0.36046973137865723  1.0000
  C   C83       1.0  0.706929756965053  0.3604696621224405  0.8304472968131337  1.0000
  C   C84       1.0  0.7930692678771507  0.16955066970320587  0.6395317265235008  1.0000
  C   C85       1.0  0.12750979990337896  0.6832524349228564  0.21061085502270768  1.0000
  C   C86       1.0  0.3724877859894065  0.7893903396409029  0.3167473062011794  1.0000
  C   C87       1.0  0.8724903473527446  0.31674774687059676  0.7893905121178761  1.0000
  C   C88       1.0  0.6275089148073505  0.21060882188738356  0.683254649037373  1.0000
  C   C89       1.0  0.19120013785004628  0.733540934454865  0.26279706678406  1.0000
  C   C90       1.0  0.3087992172904492  0.7372028100287621  0.26645882913189206  1.0000
  C   C91       1.0  0.8087999180805738  0.26645873486963717  0.7372046812090076  1.0000
  C   C92       1.0  0.6912040129846773  0.2627963419875384  0.7335429759842853  1.0000
  C   C93       1.0  0.3573910116910993  0.6884887179026862  0.21896879696308247  1.0000
  C   C94       1.0  0.14260698174004457  0.7810310403919299  0.3115115381667195  1.0000
  C   C95       1.0  0.6426083233362476  0.3115114647259247  0.7810315321029506  1.0000
  C   C96       1.0  0.8573912670819865  0.2189676056649858  0.6884888953822426  1.0000
  C   C97       1.0  0.9232216713676705  0.8326281992534345  0.1266421307415086  1.0000
  C   C98       1.0  0.5767765685861831  0.8733558160486439  0.16736776643044488  1.0000
  C   C99       1.0  0.07677786267302619  0.16736839292617123  0.8733549396569558  1.0000
  C   C100      1.0  0.4232236774420599  0.1266448775477045  0.8326312305120639  1.0000
  C   C101      1.0  0.043468109802518  0.8299811098954919  0.12608629498823373  1.0000
  C   C102      1.0  0.45653244576672597  0.8739165169158625  0.1700161173758231  1.0000
  C   C103      1.0  0.9565332201768583  0.17001650655078038  0.8739150738727163  1.0000
  C   C104      1.0  0.5434682513040983  0.12608673952478708  0.8299824673134282  1.0000
  C   C105      1.0  0.08449519620102561  0.7809491118635776  0.07484290019837654  1.0000
  C   C106      1.0  0.4155053802655075  0.9251581515042275  0.2190480451897017  1.0000
  C   C107      1.0  0.9155076799419817  0.21904798927783278  0.9251574443093773  1.0000
  C   C108      1.0  0.5844942268766999  0.0748435686977516  0.7809516386552674  1.0000
  C   C109      1.0  0.11470647045828034  0.8764105883276727  0.17495209053537755  1.0000
  C   C110      1.0  0.3852913941253533  0.8250482910515157  0.12358678740771001  1.0000
  C   C111      1.0  0.885291867827611  0.1235885703647099  0.8250484594974881  1.0000
  C   C112      1.0  0.6147089450900437  0.1749529148472746  0.8764113313459134  1.0000
  C   C113      1.0  0.1957346620014633  0.7783574436733927  0.07443320943256274  1.0000
  C   C114      1.0  0.304266411730744  0.9255658095957529  0.22164148857953583  1.0000
  C   C115      1.0  0.8042677597681801  0.22164170884504134  0.9255665629362753  1.0000
  C   C116      1.0  0.6957328338327428  0.0744338603973915  0.7783587240025938  1.0000
  C   C117      1.0  0.22931332539419463  0.8761705432814323  0.17457590342190338  1.0000
  C   C118      1.0  0.27068510938158863  0.8254236507885011  0.123828346611063  1.0000
  C   C119      1.0  0.7706851042172005  0.12382912787989399  0.8254242657584783  1.0000
  C   C120      1.0  0.7293158612732283  0.17457652917072145  0.8761710745856846  1.0000
  S   S1        1.0  0.8614040458166767  0.9620368489209168  0.036809043746742966  1.0000
  S   S2        1.0  0.6385959262162116  0.9631907402946424  0.037962913092364624  1.0000
  S   S3        1.0  0.1385961070244051  0.03796333237300329  0.963190831384651  1.0000
  S   S4        1.0  0.361404137161017  0.03680892836380419  0.9620368455551258  1.0000
  S   S5        1.0  0.7295269267789024  0.9681836450908318  0.9220547460636793  1.0000
  S   S6        1.0  0.7704730984154438  0.07794509327570145  0.0318162862156584  1.0000
  S   S7        1.0  0.2704732242005292  0.0318165363695968  0.07794562640411581  1.0000
  S   S8        1.0  0.2295285055404506  0.9220540605774302  0.9681839400878189  1.0000
  N   N1        1.0  0.7644894681103265  0.5769202720852035  0.04523902327482425  1.0000
  N   N2        1.0  0.7355107507081942  0.9547612463869795  0.4230802156230737  1.0000
  N   N3        1.0  0.235509958242524  0.4230804230123581  0.954760924938725  1.0000
  N   N4        1.0  0.264489402132888  0.045238934906940594  0.5769196595083201  1.0000
  N   N5        1.0  0.6834394305762005  0.6858249481183093  0.06527177315767567  1.0000
  N   N6        1.0  0.8165610762824966  0.9347279618557987  0.31417435558673645  1.0000
  N   N7        1.0  0.3165606328010213  0.3141747205401373  0.9347279854898075  1.0000
  N   N8        1.0  0.1834398049084669  0.06527170546795699  0.6858249491261078  1.0000
  N   N9        1.0  0.5661701391397855  0.5775935966765146  0.022950272828651825  1.0000
  N   N10       1.0  0.9338295172610954  0.9770505172392207  0.42240591799140503  1.0000
  N   N11       1.0  0.4338299205141354  0.42240607231496347  0.977050480491627  1.0000
  N   N12       1.0  0.06616891421194988  0.02294915375559729  0.5775937538525824  1.0000
  N   N13       1.0  0.654176707314626  0.6071614993505391  0.14078820041678597  1.0000
  N   N14       1.0  0.8458234583603856  0.8592124518888725  0.39283847936567895  1.0000
  N   N15       1.0  0.3458234418031481  0.39283868227640534  0.8592126693874036  1.0000
  N   N16       1.0  0.15417579092640213  0.14078721777124764  0.6071607385436621  1.0000
  N   N17       1.0  0.7499999992406288  0.9340991724562566  0.06590067845323928  1.0000
  N   N18       1.0  0.25000015360045325  0.06590100883765608  0.9340991966781547  1.0000
  N   N19       1.0  0.8366091779919742  0.9384904951562657  0.9538605857738743  1.0000
  N   N20       1.0  0.6633898290399711  0.04613846988150529  0.06150925717359708  1.0000
  N   N21       1.0  0.1633909767107582  0.06150968597113861  0.04613879202112509  1.0000
  N   N22       1.0  0.33661023433725756  0.9538611987769485  0.9384905014738862  1.0000
  N   N23       1.0  0.750000058416525  0.05084091402706999  0.949158986647234  1.0000
  N   N24       1.0  0.2500017226054326  0.9491592652635032  0.0508419699604515  1.0000
  O   O1        1.0  0.8855599386287595  0.4533080138517817  0.07048214603192796  1.0000
  O   O2        1.0  0.6144387281812769  0.9295179727689558  0.5466899070958816  1.0000
  O   O3        1.0  0.11443259852864428  0.5466906403824153  0.9295179837047699  1.0000
  O   O4        1.0  0.38556143582971464  0.07048220752587749  0.45330698401713226  1.0000
  O   O5        1.0  0.04058701080492709  0.4059395661685698  0.041455062387143464  1.0000
  O   O6        1.0  0.4594088580192519  0.9585437522065161  0.5940651799592443  1.0000
  O   O7        1.0  0.959406694967555  0.5940657518271307  0.9585450896311515  1.0000
  O   O8        1.0  0.5405907487304377  0.0414533541071691  0.4059364829506863  1.0000
  O   O9        1.0  0.8951642553281333  0.015767617024891892  0.19243284221048645  1.0000
  O   O10       1.0  0.6048353764299251  0.8075670585411883  0.9842319591392441  1.0000
  O   O11       1.0  0.10483607457901205  0.9842335897064628  0.8075677632251158  1.0000
  O   O12       1.0  0.39516477641115694  0.19243312275272467  0.01576791599214998  1.0000
  O   O13       1.0  0.7785760238850871  0.0745481032545356  0.2568416775057045  1.0000
  O   O14       1.0  0.7214240685047102  0.7431581729466856  0.9254509541671753  1.0000
  O   O15       1.0  0.2214242165581979  0.9254525908413596  0.7431588114459942  1.0000
  O   O16       1.0  0.2785752721075809  0.2568420091823852  0.0745478828896751  1.0000
  O   O17       1.0  0.006807408051258789  0.5894967144803471  0.09970332164544254  1.0000
  O   O18       1.0  0.4931993732310643  0.9002952087780967  0.41050313206633854  1.0000
  O   O19       1.0  0.9931974615746524  0.41050243453353363  0.9002965809286537  1.0000
  O   O20       1.0  0.5068068636307642  0.09970239965999639  0.5894955131867405  1.0000
  O   O21       1.0  0.16183074198833217  0.5422605615615053  0.06985450294594385  1.0000
  O   O22       1.0  0.33817149239844463  0.9301438660009818  0.45773947099984  1.0000
  O   O23       1.0  0.8381714080589617  0.45774166727184695  0.9301439355789967  1.0000
  O   O24       1.0  0.6618274102028252  0.06985375211819897  0.5422562969554933  1.0000
  O   O25       1.0  0.8632700298382969  0.8026310855893681  0.07135159573473968  1.0000
  O   O26       1.0  0.636731462323496  0.9286466335626283  0.19736571333948655  1.0000
  O   O27       1.0  0.13673122743208668  0.19736601672281748  0.9286451806147368  1.0000
  O   O28       1.0  0.36326968539738397  0.07135457183402849  0.8026344381614694  1.0000
  O   O29       1.0  0.8872529559813315  0.8630508298937652  0.18161313288987188  1.0000
  O   O30       1.0  0.6127411385741225  0.8183862809607374  0.13694625856563647  1.0000
  O   O31       1.0  0.11274176808737481  0.1369462822634304  0.8183847882547752  1.0000
  O   O32       1.0  0.3872576488926995  0.18161544074245475  0.863054376550373  1.0000
