data_image0
_chemical_formula_structural       Cd2H44C68N8O10
_chemical_formula_sum              "Cd2 H44 C68 N8 O10"
_cell_length_a       10.325602411232142
_cell_length_b       12.548160981739871
_cell_length_c       13.88279786180223
_cell_angle_alpha    101.36476186951928
_cell_angle_beta     104.51772930219441
_cell_angle_gamma    103.40478623049708

_space_group_name_H-M_alt    "P 1"
_space_group_IT_number       1

loop_
  _space_group_symop_operation_xyz
  'x, y, z'

loop_
  _atom_site_type_symbol
  _atom_site_label
  _atom_site_symmetry_multiplicity
  _atom_site_fract_x
  _atom_site_fract_y
  _atom_site_fract_z
  _atom_site_occupancy
  Cd  Cd1       1.0  0.24072398800889525  0.056656074967129696  0.4947424828160152  1.0000
  Cd  Cd2       1.0  0.7592727775976371  0.9433449750679584  0.5052579343079627  1.0000
  H   H1        1.0  0.9891841388802122  0.18781149764294716  0.4918540478893476  1.0000
  H   H2        1.0  0.010815938094793918  0.8121903959076064  0.5081471731636781  1.0000
  H   H3        1.0  0.6452017697183975  0.025671879863651305  0.7733350204323912  1.0000
  H   H4        1.0  0.3547991029281547  0.974326600763227  0.22666360915152942  1.0000
  H   H5        1.0  0.584034900579141  0.19871076770749593  0.5695037469915363  1.0000
  H   H6        1.0  0.4159642363169027  0.8012885725889093  0.4304968469087669  1.0000
  H   H7        1.0  0.4532560159896875  0.22943010756507223  0.7388916220670011  1.0000
  H   H8        1.0  0.5467437476256619  0.7705709349007674  0.2611093899351146  1.0000
  H   H9        1.0  0.23260493316755063  0.7940217531732116  0.690808187980778  1.0000
  H   H10       1.0  0.7673952703149212  0.20597757988191737  0.30918973507770176  1.0000
  H   H11       1.0  0.8049209431082359  0.23838121540411092  0.5360713522440362  1.0000
  H   H12       1.0  0.19508222475797504  0.7616181124408639  0.46392860025985516  1.0000
  H   H13       1.0  0.1511689874645157  0.17134550582582617  0.2960426821505138  1.0000
  H   H14       1.0  0.8488311487677933  0.8286538319474986  0.7039581100425066  1.0000
  H   H15       1.0  0.20460539805445419  0.5230981146561432  0.8140403337347237  1.0000
  H   H16       1.0  0.7953959499985574  0.47690207875611185  0.18596516950372433  1.0000
  H   H17       1.0  0.987428331352028  0.7606932139378059  0.16020539351802646  1.0000
  H   H18       1.0  0.012571143709060088  0.23930952732278846  0.8397922518750176  1.0000
  H   H19       1.0  0.8185148351718183  0.03297321415492149  0.24589217778024158  1.0000
  H   H20       1.0  0.18148140459063467  0.9670261266334349  0.7541035175401021  1.0000
  H   H21       1.0  0.318207625725826  0.7018245370501576  0.8296939889688986  1.0000
  H   H22       1.0  0.6817901392169787  0.2981765104618431  0.17030662644778968  1.0000
  H   H23       1.0  0.732079830693536  0.9326922290836847  0.9100117152048455  1.0000
  H   H24       1.0  0.2679216518597869  0.06730795489217908  0.08998804976452128  1.0000
  H   H25       1.0  0.7793375437305343  0.6735082503976244  0.9978789168741782  1.0000
  H   H26       1.0  0.2206597041878879  0.32648853562907476  0.0021186997297846038  1.0000
  H   H27       1.0  0.1556925394235193  0.30990061615712244  0.1877756129127661  1.0000
  H   H28       1.0  0.8443090023871066  0.6900970120415125  0.8122237231965953  1.0000
  H   H29       1.0  0.43905945023444565  0.54121071734599  0.9311901619124114  1.0000
  H   H30       1.0  0.5609419986937995  0.45878946898896794  0.06881103762422919  1.0000
  H   H31       1.0  0.5923557664896248  0.48408722870794196  0.3523189234539429  1.0000
  H   H32       1.0  0.40764529300911084  0.5159146634990748  0.6476832131754336  1.0000
  H   H33       1.0  0.560821416892999  0.3967901571203072  0.8962183498927628  1.0000
  H   H34       1.0  0.4391780838003143  0.6032100307221668  0.10378030120754289  1.0000
  H   H35       1.0  0.6121645215717494  0.9485937150521478  0.08474998231103102  1.0000
  H   H36       1.0  0.3878310410337776  0.05140392710543299  0.9152474467584069  1.0000
  H   H37       1.0  0.37378077132898113  0.46250043851293304  0.21710136386873566  1.0000
  H   H38       1.0  0.6262206439741859  0.5374997501811264  0.7829012702351718  1.0000
  H   H39       1.0  0.9499046217637853  0.6607787710356234  0.6170662462818441  1.0000
  H   H40       1.0  0.05009276256920713  0.33922143010985917  0.3829370292184819  1.0000
  H   H41       1.0  0.12900583806860774  0.5612419397871022  0.6610538168891296  1.0000
  H   H42       1.0  0.8709971360399819  0.43875995327150713  0.3389523027438486  1.0000
  H   H43       1.0  0.6998972669010471  0.5517755482510012  0.53200910050316  1.0000
  H   H44       1.0  0.3001015566353402  0.44822294096069015  0.4679912843462334  1.0000
  C   C1        1.0  0.7380598089797274  0.3886593531793209  0.528354604360075  1.0000
  C   C2        1.0  0.26194171601835586  0.6113382761988645  0.4716454490329126  1.0000
  C   C3        1.0  0.3823616009810138  0.9718966948847904  0.6436747605771486  1.0000
  C   C4        1.0  0.617639872752619  0.028106041329643  0.3563232814013304  1.0000
  C   C5        1.0  0.9152885996437803  0.9025685779322854  0.2112521569182277  1.0000
  C   C6        1.0  0.0847095963464568  0.09743331240758117  0.7887436465639296  1.0000
  C   C7        1.0  0.27219750108588414  0.28691341998215586  0.6868330623650252  1.0000
  C   C8        1.0  0.7278036344827044  0.7130859152680884  0.31316792812070565  1.0000
  C   C9        1.0  0.07533723104911871  0.23481640649337973  0.5620171811315018  1.0000
  C   C10       1.0  0.9246624989411529  0.7651846383315543  0.437985265437888  1.0000
  C   C11       1.0  0.03400902716985147  0.9523827660587328  0.3095751564340573  1.0000
  C   C12       1.0  0.9659884916634524  0.04761742565035829  0.6904223807971872  1.0000
  C   C13       1.0  0.20343639064141428  0.37035473778045247  0.7071359213167625  1.0000
  C   C14       1.0  0.7965653043963242  0.629646304357422  0.29286835640532866  1.0000
  C   C15       1.0  0.9769390590863835  0.39401126898438577  0.6045696911896599  1.0000
  C   C16       1.0  0.023061356880504057  0.605988922232754  0.3954327446215373  1.0000
  C   C17       1.0  0.4336259671636499  0.9159563140958512  0.7244500972234675  1.0000
  C   C18       1.0  0.566375904819175  0.08404216400794703  0.2755487306531634  1.0000
  C   C19       1.0  0.5739641615694069  0.9554089372467799  0.7869940593006959  1.0000
  C   C20       1.0  0.4260379645157641  0.04459294771896079  0.21300540648685737  1.0000
  C   C21       1.0  0.5309239771266901  0.2303191166764407  0.5082606639622327  1.0000
  C   C22       1.0  0.4690764892778176  0.7696810710020472  0.49173961999805726  1.0000
  C   C23       1.0  0.4020359813396865  0.2949347613127529  0.7544615218756902  1.0000
  C   C24       1.0  0.5979658145732927  0.7050662737478176  0.24553845214458653  1.0000
  C   C25       1.0  0.3415654851294221  0.8239344694241666  0.7396919810188721  1.0000
  C   C26       1.0  0.6584350485252415  0.17606571353612568  0.2603054338068773  1.0000
  C   C27       1.0  0.4934250844470895  0.34017215544508866  0.40216173118280096  1.0000
  C   C28       1.0  0.5065764573635435  0.6598254727535463  0.5978376049265535  1.0000
  C   C29       1.0  0.8366467079426912  0.3311314530677905  0.5554955514093294  1.0000
  C   C30       1.0  0.16335703620521272  0.6688695804852643  0.44450697104728226  1.0000
  C   C31       1.0  0.36948976900706043  0.25171371063924397  0.38498190596603615  1.0000
  C   C32       1.0  0.6305126960699923  0.748286471993083  0.6150187745796812  1.0000
  C   C33       1.0  0.2458970519668426  0.23932044036034478  0.3077982833558863  1.0000
  C   C34       1.0  0.7541047271335939  0.7606805958797762  0.6922024079480238  1.0000
  C   C35       1.0  0.2598526386296315  0.4615266972648938  0.7962161807089245  1.0000
  C   C36       1.0  0.7401460840315153  0.5384717990241015  0.2037885078422761  1.0000
  C   C37       1.0  0.9050204377279841  0.8010993180868553  0.1419748974395389  1.0000
  C   C38       1.0  0.09497916384056988  0.19890086267832166  0.8580194499589595  1.0000
  C   C39       1.0  0.5287769656513461  0.8124331806167149  0.8773316608631347  1.0000
  C   C40       1.0  0.47122322101858316  0.18756615361796483  0.12266697947897849  1.0000
  C   C41       1.0  0.8100328022773766  0.9557112242313861  0.18984052216509886  1.0000
  C   C42       1.0  0.1899660796894764  0.044289812500686296  0.8101552705588657  1.0000
  C   C43       1.0  0.3881323574964171  0.7728099579281178  0.8162239298311391  1.0000
  C   C44       1.0  0.6118691586819766  0.22719022368864464  0.18377440057096087  1.0000
  C   C45       1.0  0.6223699159204229  0.9038670727489374  0.8630251042004388  1.0000
  C   C46       1.0  0.37763030437459116  0.09613225912663376  0.13697210157440756  1.0000
  C   C47       1.0  0.6870487397881532  0.8072526035592487  0.032874315208694285  1.0000
  C   C48       1.0  0.31295181067905287  0.19274757822149266  0.9671223823334216  1.0000
  C   C49       1.0  0.7907344862225045  0.753050347307891  0.05243736580940354  1.0000
  C   C50       1.0  0.209266377604358  0.2469506855575645  0.9475595407836224  1.0000
  C   C51       1.0  0.250107690172193  0.3167614837816756  0.2485682012341712  1.0000
  C   C52       1.0  0.7498934622089308  0.6832378502890177  0.751432071967926  1.0000
  C   C53       1.0  0.3897643357305753  0.4693133403603652  0.8625824886567699  1.0000
  C   C54       1.0  0.6102371220173524  0.5306842937360159  0.1374204338707656  1.0000
  C   C55       1.0  0.4974569102543213  0.41742844208208385  0.34210202821881813  1.0000
  C   C56       1.0  0.5025422770793427  0.5825708946756762  0.6578964138305778  1.0000
  C   C57       1.0  0.45961185035609725  0.3876745505479562  0.8418194668956289  1.0000
  C   C58       1.0  0.540390894455534  0.612326485528186  0.1581828572682724  1.0000
  C   C59       1.0  0.695425343549438  0.9086213286958723  0.10088277202026324  1.0000
  C   C60       1.0  0.3045768586055786  0.0913779993130888  0.8991155476236442  1.0000
  C   C61       1.0  0.37350705999176637  0.40400060841141533  0.2654722884924682  1.0000
  C   C62       1.0  0.6264943889364787  0.5959995779235426  0.7345289110441726  1.0000
  C   C63       1.0  0.9184719680467738  0.5682871871823778  0.5996324396933588  1.0000
  C   C64       1.0  0.0815304465926658  0.4317129989885941  0.400370392703266  1.0000
  C   C65       1.0  0.018747336377984414  0.5129495429774948  0.6268854839415212  1.0000
  C   C66       1.0  0.9812507507441594  0.4870498033806427  0.3731170635169719  1.0000
  C   C67       1.0  0.777846839894771  0.5073230807695523  0.550189160863212  1.0000
  C   C68       1.0  0.22215666696332187  0.4926745447420159  0.4498120063988438  1.0000
  N   N1        1.0  0.0781865418946737  0.33511627968087504  0.6254577891162185  1.0000
  N   N2        1.0  0.9218108592508544  0.6648839202850566  0.3745447691004671  1.0000
  N   N3        1.0  0.39754348881781  0.18586493789697298  0.4529278400856215  1.0000
  N   N4        1.0  0.6024556648907692  0.8141344012198886  0.5470720365310413  1.0000
  N   N5        1.0  0.18879236736734836  0.20411091902644068  0.5958531773550603  1.0000
  N   N6        1.0  0.8112086921313875  0.7958909731805758  0.40414895927431616  1.0000
  N   N7        1.0  0.5949398944147788  0.3238288869174681  0.48150706031321283  1.0000
  N   N8        1.0  0.40506327345143234  0.676170440927514  0.5184928921906787  1.0000
  O   O1        1.0  0.45959830811026586  0.0635567926762803  0.6383904176341345  1.0000
  O   O2        1.0  0.5404026673257789  0.9364451054284901  0.361615305413423  1.0000
  O   O3        1.0  0.2561986501110597  0.9235461592249978  0.5812989294511867  1.0000
  O   O4        1.0  0.743808786015137  0.07645656421004078  0.4187017368508491  1.0000
  O   O5        1.0  0.037188421701145606  0.046017382005814504  0.36943611050750036  1.0000
  O   O6        1.0  0.9628050493494557  0.9539828233342502  0.6305627854037894  1.0000
  O   O7        1.0  0.1268468723127684  0.9022321639457047  0.3319999263024158  1.0000
  O   O8        1.0  0.8731509598801992  0.0977688788481004  0.6679978199797388  1.0000
  O   O9        1.0  0.5695044732983305  0.7527783251867532  0.9469646018465099  1.0000
  O   O10       1.0  0.43049278261294427  0.24722101189897214  0.053030574482924905  1.0000
