data_image0
_chemical_formula_structural       Co4H44C68N12O16
_chemical_formula_sum              "Co4 H44 C68 N12 O16"
_cell_length_a       10.52814640019107
_cell_length_b       14.232129745465453
_cell_length_c       21.240968094215695
_cell_angle_alpha    90.00004958641483
_cell_angle_beta     103.11406306736836
_cell_angle_gamma    90.00090639673752

_space_group_name_H-M_alt    "P 1"
_space_group_IT_number       1

loop_
  _space_group_symop_operation_xyz
  'x, y, z'

loop_
  _atom_site_type_symbol
  _atom_site_label
  _atom_site_symmetry_multiplicity
  _atom_site_fract_x
  _atom_site_fract_y
  _atom_site_fract_z
  _atom_site_occupancy
  Co  Co1       1.0  0.5724265950518443  0.5426348190169675  0.9772233952998736  1.0000
  Co  Co2       1.0  0.4273480519665184  0.0426480007880627  0.5227796696749751  1.0000
  Co  Co3       1.0  0.42731716079331494  0.4573395892612879  0.02277261778824169  1.0000
  Co  Co4       1.0  0.5723525120105108  0.9573994813471529  0.4772403334928656  1.0000
  H   H1        1.0  0.7614946607849546  0.7566675910270177  0.6320549825783888  1.0000
  H   H2        1.0  0.2385393357342238  0.2566340939095255  0.8679423226166353  1.0000
  H   H3        1.0  0.2385681633101768  0.24335038253846622  0.3679273492906249  1.0000
  H   H4        1.0  0.7614278602657762  0.7433150208364481  0.13207906914708195  1.0000
  H   H5        1.0  0.8220410522308085  0.6662275969071698  0.7366284295955199  1.0000
  H   H6        1.0  0.17805926716643944  0.16616932954050156  0.7633772442541373  1.0000
  H   H7        1.0  0.17807805627951726  0.3338269140538515  0.2633717100671832  1.0000
  H   H8        1.0  0.8219509608910514  0.8337481668674086  0.23665075509374847  1.0000
  H   H9        1.0  0.6156035832668961  0.8686227119043011  0.826217301151118  1.0000
  H   H10       1.0  0.38441841147552214  0.3685969709772579  0.6737807881499267  1.0000
  H   H11       1.0  0.38451455010248736  0.13140861207842386  0.17378274213268705  1.0000
  H   H12       1.0  0.6154864308710372  0.6313416038482985  0.3262184282191428  1.0000
  H   H13       1.0  0.5494943679650532  0.9549677123512051  0.7206419600486742  1.0000
  H   H14       1.0  0.45046927022747246  0.45497102515479787  0.779336299352295  1.0000
  H   H15       1.0  0.4505540532241738  0.0450558822147755  0.27934271623901463  1.0000
  H   H16       1.0  0.5493915765314908  0.5450026811679152  0.22063973005066378  1.0000
  H   H17       1.0  0.3389831000788703  0.7965482929294011  0.9079992765561901  1.0000
  H   H18       1.0  0.6610037885259885  0.29635918653028176  0.5920061201517656  1.0000
  H   H19       1.0  0.6610408570368236  0.20364042085018502  0.091998053324204  1.0000
  H   H20       1.0  0.3389395411468143  0.7034859380077592  0.40800490634912034  1.0000
  H   H21       1.0  0.15518643955326888  0.9000664502208692  0.8518666249705408  1.0000
  H   H22       1.0  0.844780794154538  0.39987610069777446  0.6481778840140253  1.0000
  H   H23       1.0  0.8448285558676574  0.1001257767057666  0.14815996172193735  1.0000
  H   H24       1.0  0.15515537451865669  0.5999634027472212  0.3518767065328704  1.0000
  H   H25       1.0  0.926998815621161  0.8507832533484814  0.8433816634131761  1.0000
  H   H26       1.0  0.0729653632402929  0.35062590689793177  0.656662505696268  1.0000
  H   H27       1.0  0.07301550738463189  0.14937594970829346  0.15665003755025717  1.0000
  H   H28       1.0  0.9269776297410031  0.6492262440276164  0.3433927592793539  1.0000
  H   H29       1.0  0.06278977220821252  0.5972574673138382  0.9497240477376467  1.0000
  H   H30       1.0  0.9372789545531788  0.09712989640159718  0.55026479242256  1.0000
  H   H31       1.0  0.9373057034771932  0.4028666044062631  0.050253033452762025  1.0000
  H   H32       1.0  0.0627061576919985  0.9027461443492157  0.4497480084438835  1.0000
  H   H33       1.0  0.44436802044090484  0.6046429407440785  0.8372356773066234  1.0000
  H   H34       1.0  0.55572043751485  0.104652943714207  0.6627395763594068  1.0000
  H   H35       1.0  0.5557692861577479  0.39535044099247324  0.16271068561886895  1.0000
  H   H36       1.0  0.4443312658833278  0.8953411401840725  0.33725154697508236  1.0000
  H   H37       1.0  0.5022938865475197  0.6467205606533071  0.7690768941234084  1.0000
  H   H38       1.0  0.4977815246604679  0.14668009381827565  0.7309079350380687  1.0000
  H   H39       1.0  0.49781059402288025  0.3533501108109931  0.2308883606168807  1.0000
  H   H40       1.0  0.5022598679668419  0.8533104768458062  0.2690892339559455  1.0000
  H   H41       1.0  0.45125619573062187  0.727216332462838  0.8219767476697232  1.0000
  H   H42       1.0  0.5487734613302776  0.227221358444659  0.6780238737929667  1.0000
  H   H43       1.0  0.548809403798728  0.2727798594289014  0.17801998775857444  1.0000
  H   H44       1.0  0.4511993043721602  0.7727839671475536  0.3219599193698884  1.0000
  C   C1        1.0  0.6010411628246572  0.9085623671724363  0.6070661972802256  1.0000
  C   C2        1.0  0.398907759070127  0.4086074014637191  0.8929101010284487  1.0000
  C   C3        1.0  0.3988969861497508  0.0914120422417355  0.39290569724530416  1.0000
  C   C4        1.0  0.6010420340758243  0.5914260294041399  0.10706200232284156  1.0000
  C   C5        1.0  0.6500952219688827  0.8597597515677151  0.6702952750835182  1.0000
  C   C6        1.0  0.34989432063939313  0.35976335270567733  0.8296981873318717  1.0000
  C   C7        1.0  0.3499172109825465  0.1402427637170121  0.32968725752532896  1.0000
  C   C8        1.0  0.6500377086518511  0.6402110566939071  0.17030183194295742  1.0000
  C   C9        1.0  0.7299997721460443  0.7800926030256293  0.6749450387026814  1.0000
  C   C10       1.0  0.27004070944334296  0.2800790874918135  0.8250548093582071  1.0000
  C   C11       1.0  0.27006511173854625  0.21991693892736913  0.3250393806293631  1.0000
  C   C12       1.0  0.7299195799248183  0.7198812693799682  0.17496448692214275  1.0000
  C   C13       1.0  0.7640052517601887  0.7302865304363878  0.7329125128163911  1.0000
  C   C14       1.0  0.23605875973988327  0.23025214497085494  0.7670943319896184  1.0000
  C   C15       1.0  0.23608940186819893  0.26974409076846945  0.26708379711375585  1.0000
  C   C16       1.0  0.7639125283478734  0.7696836197272603  0.23293076100863896  1.0000
  C   C17       1.0  0.7198786289210161  0.7620960254243841  0.7864736807449193  1.0000
  C   C18       1.0  0.2801678322286847  0.26204310996887864  0.7135192087528852  1.0000
  C   C19       1.0  0.2802129350626004  0.23795075637683985  0.21351949799591818  1.0000
  C   C20       1.0  0.7197999804318727  0.737877196719417  0.2864961212539684  1.0000
  C   C21       1.0  0.6466525527526057  0.8445955386090206  0.7833265058703776  1.0000
  C   C22       1.0  0.3533589614157435  0.3445603609041967  0.7166672323141869  1.0000
  C   C23       1.0  0.353445615105521  0.1554470274158462  0.21666355769978204  1.0000
  C   C24       1.0  0.6465525673339556  0.6553683770623663  0.2833302899661377  1.0000
  C   C25       1.0  0.6108212407829754  0.8926548482286948  0.7250975822208049  1.0000
  C   C26       1.0  0.3891638347596  0.39264477834519335  0.7748898123671993  1.0000
  C   C27       1.0  0.3892330572536977  0.107371556915119  0.2748881458334297  1.0000
  C   C28       1.0  0.6107344152129598  0.607314875496705  0.22509603615481677  1.0000
  C   C29       1.0  0.3197858167998008  0.626775317008949  0.9626897760890077  1.0000
  C   C30       1.0  0.6802444667922529  0.12665521253929057  0.5372934037107627  1.0000
  C   C31       1.0  0.6803052204405304  0.3733824811697559  0.03726096279628172  1.0000
  C   C32       1.0  0.3196889495423322  0.8732482306857605  0.46271381725396316  1.0000
  C   C33       1.0  0.21126559989025395  0.691226000549115  0.9321332476267589  1.0000
  C   C34       1.0  0.7887692350709515  0.1910749112588448  0.567870212629366  1.0000
  C   C35       1.0  0.7888077843504676  0.3089381212675661  0.06784730206678094  1.0000
  C   C36       1.0  0.21119525567975472  0.8087983188367357  0.43215467956243014  1.0000
  C   C37       1.0  0.23774875898127587  0.7763701043928675  0.9043730411791984  1.0000
  C   C38       1.0  0.7622510665174075  0.2762039879320213  0.5956458638714042  1.0000
  C   C39       1.0  0.7622900415607601  0.22381579893681183  0.095629523435143  1.0000
  C   C40       1.0  0.23769571100473993  0.7236523788021357  0.40437445191782473  1.0000
  C   C41       1.0  0.1351528574995058  0.8333475909734177  0.8729518552075536  1.0000
  C   C42       1.0  0.8648449520550728  0.33316939176895494  0.6270772559999929  1.0000
  C   C43       1.0  0.8648764307287423  0.1668411228571856  0.12707049228227876  1.0000
  C   C44       1.0  0.1351081427561525  0.6666855697383409  0.3729516906979101  1.0000
  C   C45       1.0  0.006143517210162522  0.8054901328524482  0.8681222098756155  1.0000
  C   C46       1.0  0.9938455659639233  0.30534438949900533  0.6319008367362927  1.0000
  C   C47       1.0  0.9938875827173062  0.19466204393977185  0.131897961764281  1.0000
  C   C48       1.0  0.006097614941701606  0.6945183009372753  0.368124304349884  1.0000
  C   C49       1.0  0.9788602891173708  0.7200406958714324  0.8955922682058957  1.0000
  C   C50       1.0  0.021167971539810506  0.21991356889549246  0.6044204550495067  1.0000
  C   C51       1.0  0.021198256226526296  0.280092509915697  0.10441648648594544  1.0000
  C   C52       1.0  0.9788020931276404  0.7799540401457463  0.39560027823169014  1.0000
  C   C53       1.0  0.08244963670920671  0.6636221956927528  0.928195902760088  1.0000
  C   C54       1.0  0.9176001772864877  0.16348107438532372  0.571809016551427  1.0000
  C   C55       1.0  0.9176399510222596  0.3365173339859382  0.07179660973399395  1.0000
  C   C56       1.0  0.082365123019926  0.8363795082734385  0.4282131297850711  1.0000
  C   C57       1.0  0.8459658338763772  0.6872113670048848  0.892477337024282  1.0000
  C   C58       1.0  0.15405537340961217  0.1871125235715212  0.6075266572834155  1.0000
  C   C59       1.0  0.1540982298897333  0.31287757277279843  0.10752631130568353  1.0000
  C   C60       1.0  0.8459197585495773  0.8127705434843762  0.3924978736196253  1.0000
  C   C61       1.0  0.6348317552552132  0.6600244171586525  0.8606557980226345  1.0000
  C   C62       1.0  0.3652128293134211  0.15997099188160743  0.6393438919822716  1.0000
  C   C63       1.0  0.3652573632747291  0.3400097171818005  0.13932866146880946  1.0000
  C   C64       1.0  0.6347943916988398  0.8399633677597932  0.36068239726769497  1.0000
  C   C65       1.0  0.5003453579812599  0.659547199973062  0.819903281048582  1.0000
  C   C66       1.0  0.4997177778746503  0.15953056716665512  0.6800822287803927  1.0000
  C   C67       1.0  0.49976140222115367  0.3404792054710484  0.1800678506754282  1.0000
  C   C68       1.0  0.5003148682763694  0.8404529770898889  0.3199145468015488  1.0000
  N   N1        1.0  0.6803903673917516  0.615788905734952  0.9161418137048261  1.0000
  N   N2        1.0  0.3196376153747736  0.11572080061680619  0.5838726856571912  1.0000
  N   N3        1.0  0.3196765654043077  0.38425084957228955  0.08386117619090783  1.0000
  N   N4        1.0  0.6803662841295335  0.8842023168438119  0.41616316583124313  1.0000
  N   N5        1.0  0.8114742892771645  0.6325124253861175  0.9362057946580934  1.0000
  N   N6        1.0  0.1885591352445886  0.1324012766444582  0.5638125522006804  1.0000
  N   N7        1.0  0.18860277833877598  0.3675793250162799  0.06380479051280472  1.0000
  N   N8        1.0  0.8114144323806158  0.8674817904071334  0.4362184177687071  1.0000
  N   N9        1.0  0.7368190326890909  0.7066912511671931  0.8438934875895542  1.0000
  N   N10       1.0  0.26321958159645226  0.2066225875985594  0.6561023515247089  1.0000
  N   N11       1.0  0.26327821545169877  0.29336044911473635  0.15609742704354096  1.0000
  N   N12       1.0  0.7367507036937155  0.7932787479522714  0.3439221713810881  1.0000
  O   O1        1.0  0.5126090064978257  0.9704766781259977  0.6054074164673724  1.0000
  O   O2        1.0  0.4873029036359355  0.4705515733030481  0.8945921174594037  1.0000
  O   O3        1.0  0.4873099522558703  0.029466815239373997  0.39460120157391293  1.0000
  O   O4        1.0  0.5125926269643202  0.5295190969257391  0.10538027503017135  1.0000
  O   O5        1.0  0.6479448761974352  0.8854184969701817  0.5590920929205084  1.0000
  O   O6        1.0  0.3519677699091873  0.3854447795921416  0.9408692991006762  1.0000
  O   O7        1.0  0.3519418908247758  0.11456645165869617  0.44086294929973496  1.0000
  O   O8        1.0  0.6479985133365956  0.6145633564948058  0.05910302097494482  1.0000
  O   O9        1.0  0.43286722089514024  0.643085556778871  0.9526830977740206  1.0000
  O   O10       1.0  0.5671931320997956  0.14300276968185702  0.5473275570250922  1.0000
  O   O11       1.0  0.5672339114326519  0.35704483869245957  0.04729124561396962  1.0000
  O   O12       1.0  0.4327717562569404  0.8569477503165572  0.4526874839940975  1.0000
  O   O13       1.0  0.2931360804309548  0.5571257344939297  0.9951691901332613  1.0000
  O   O14       1.0  0.7068163752444718  0.057026272261886383  0.5047690374066394  1.0000
  O   O15       1.0  0.706883030668365  0.44300606571458445  0.004744769029407795  1.0000
  O   O16       1.0  0.2930619911544383  0.9428863048749109  0.4952082524049431  1.0000
