data_image0
_chemical_formula_structural       Al2H24C60O36
_chemical_formula_sum              "Al2 H24 C60 O36"
_cell_length_a       4.024654977004922
_cell_length_b       29.136835685205114
_cell_length_c       29.1369304913072
_cell_angle_alpha    119.99599458417876
_cell_angle_beta     90.00004310830035
_cell_angle_gamma    89.99987602150694

_space_group_name_H-M_alt    "P 1"
_space_group_IT_number       1

loop_
  _space_group_symop_operation_xyz
  'x, y, z'

loop_
  _atom_site_type_symbol
  _atom_site_label
  _atom_site_symmetry_multiplicity
  _atom_site_fract_x
  _atom_site_fract_y
  _atom_site_fract_z
  _atom_site_occupancy
  Al  Al1       1.0  0.00011756643439749999  0.500008226667866  0.4999956489170288  1.0000
  Al  Al2       1.0  0.9994746163372812  0.16665851484589206  0.8333449909599864  1.0000
  H   H1        1.0  0.43491178504873323  0.16656240105319844  0.6862749794209863  1.0000
  H   H2        1.0  0.5643907070151643  0.3137517664604912  0.833448595198952  1.0000
  H   H3        1.0  0.5644821228617688  0.3529216481063243  0.49987298333449814  1.0000
  H   H4        1.0  0.43552398474784587  0.5001241055101957  0.6470802477224283  1.0000
  H   H5        1.0  0.43488028636219417  0.019675307523961138  0.8334281157915626  1.0000
  H   H6        1.0  0.564367010494749  0.0196932495358695  0.6862479867769125  1.0000
  H   H7        1.0  0.5644685492447155  0.6469504645104319  0.6470799554648039  1.0000
  H   H8        1.0  0.4355157286368438  0.646961755648391  0.49987291234521086  1.0000
  H   H9        1.0  0.43491889068491935  0.31372603809992916  0.9802967566484925  1.0000
  H   H10       1.0  0.5644436887063693  0.16655817544175722  0.9803392251251779  1.0000
  H   H11       1.0  0.5644813195350481  0.5001336623594455  0.3530408038806387  1.0000
  H   H12       1.0  0.4355218486219954  0.35292699711280306  0.3530507593405616  1.0000
  H   H13       1.0  0.8289496426982412  0.38124067437667697  0.7467210662504654  1.0000
  H   H14       1.0  0.17099057152213254  0.25326194134317587  0.6187258348682363  1.0000
  H   H15       1.0  0.17099493017204992  0.41352235091206063  0.714660096218303  1.0000
  H   H16       1.0  0.8285995616192923  0.28531682974072226  0.5864918409200826  1.0000
  H   H17       1.0  0.8287560457222939  0.8654637830548848  0.6187498455018033  1.0000
  H   H18       1.0  0.1709333296052762  0.8654448833092302  0.7467332607800615  1.0000
  H   H19       1.0  0.17102041302805301  0.8011400494611605  0.586456257056561  1.0000
  H   H20       1.0  0.8285551698792446  0.8011687255937261  0.7146717939599302  1.0000
  H   H21       1.0  0.8289793941175604  0.2532900731705325  0.13454622345280856  1.0000
  H   H22       1.0  0.17111870884262712  0.38128843923679057  0.13455164261551297  1.0000
  H   H23       1.0  0.17104714414071512  0.2853516250721029  0.19886875983537788  1.0000
  H   H24       1.0  0.8285861706240213  0.41352562479787736  0.1988265555773979  1.0000
  C   C1        1.0  0.50007107726951  0.4595025591500387  0.4189932744047056  1.0000
  C   C2        1.0  0.5000736872786078  0.4595028499006801  0.5405040638869282  1.0000
  C   C3        1.0  0.5000582410922761  0.581013441320117  0.540501911399524  1.0000
  C   C4        1.0  0.4995085566619439  0.2071857434851977  0.7928421791200363  1.0000
  C   C5        1.0  0.49951654895176045  0.08563339533974078  0.7928188236633175  1.0000
  C   C6        1.0  0.49950619743611924  0.20715972255777598  0.9143710436532473  1.0000
  C   C7        1.0  0.4996127522462502  0.23670670063838614  0.7633070002043496  1.0000
  C   C8        1.0  0.4619077205137287  0.20952716521911424  0.708377126844674  1.0000
  C   C9        1.0  0.46585573662980556  0.2364401036698778  0.6800353371401114  1.0000
  C   C10       1.0  0.4998087362332199  0.292775720282904  0.707221872382064  1.0000
  C   C11       1.0  0.5336873543887962  0.3199709203884565  0.763556871019155  1.0000
  C   C12       1.0  0.537449320759045  0.29164161789000786  0.7904878496181312  1.0000
  C   C13       1.0  0.4998930607756407  0.321118560298906  0.6788709802867529  1.0000
  C   C14       1.0  0.4999451057786004  0.34554869643427094  0.654436884852835  1.0000
  C   C15       1.0  0.4999847059730343  0.3738980814600835  0.6260972934591821  1.0000
  C   C16       1.0  0.533647281126136  0.34671434028913234  0.5697638594401938  1.0000
  C   C17       1.0  0.537570445607031  0.3750384215106733  0.5428415319410861  1.0000
  C   C18       1.0  0.5000216701088861  0.42997220592702934  0.5700255929177588  1.0000
  C   C19       1.0  0.46243577583955914  0.45715573185477604  0.6249590454768069  1.0000
  C   C20       1.0  0.4663170023056439  0.43023116626292063  0.6532808871231738  1.0000
  C   C21       1.0  0.4995938052310152  0.02658019455855498  0.763289229477749  1.0000
  C   C22       1.0  0.4618918865895837  0.9988222923814117  0.790462437283459  1.0000
  C   C23       1.0  0.46583529865680623  0.9435684235965381  0.7635456167390233  1.0000
  C   C24       1.0  0.49980846808649926  0.9144317118076796  0.7072110410818413  1.0000
  C   C25       1.0  0.5336571752200854  0.9435816006977473  0.6800222962158887  1.0000
  C   C26       1.0  0.5374138035216448  0.9988400879291106  0.7083545988342053  1.0000
  C   C27       1.0  0.4998708070213738  0.8577395952230873  0.6788654865152213  1.0000
  C   C28       1.0  0.4999281459476351  0.808879089286293  0.6544383648127692  1.0000
  C   C29       1.0  0.49998054611197773  0.7521943533482937  0.6260950388502096  1.0000
  C   C30       1.0  0.5336407314184584  0.7230473538220321  0.6532843086576392  1.0000
  C   C31       1.0  0.5375592951440709  0.6678031479995425  0.624963118468749  1.0000
  C   C32       1.0  0.5000008623168739  0.640061030512541  0.5700302534178407  1.0000
  C   C33       1.0  0.4624123961704286  0.6678075407292707  0.5428426398507041  1.0000
  C   C34       1.0  0.466308165446371  0.7230504990509201  0.5697628186612961  1.0000
  C   C35       1.0  0.49965272396448074  0.23669709371468167  0.973425884573558  1.0000
  C   C36       1.0  0.46192898970809904  0.29162721452511414  0.0011634565280616547  1.0000
  C   C37       1.0  0.4658795703812544  0.3199737824048725  0.056417798928798446  1.0000
  C   C38       1.0  0.4998528193284245  0.2927916745872849  0.08557235255387505  1.0000
  C   C39       1.0  0.5337466273449892  0.236454557565402  0.056442809783305806  1.0000
  C   C40       1.0  0.537506018081686  0.20952046947491001  0.0011837425849137286  1.0000
  C   C41       1.0  0.4999049306353527  0.3211432126279091  0.14226036036386353  1.0000
  C   C42       1.0  0.4999421431210608  0.3455741237385297  0.19112172252783924  1.0000
  C   C43       1.0  0.49997934636839153  0.3739134090525694  0.24780619644562324  1.0000
  C   C44       1.0  0.5336515785975777  0.4302458424882758  0.2769520735007022  1.0000
  C   C45       1.0  0.5375947115232975  0.45716542303950547  0.332195445796181  1.0000
  C   C46       1.0  0.5000239380927597  0.4299778226708781  0.3599443308916578  1.0000
  C   C47       1.0  0.4624184446916005  0.3750462803097036  0.3321993410886607  1.0000
  C   C48       1.0  0.4663070452027114  0.34672607705695674  0.2769543235066295  1.0000
  C   C49       1.0  0.5579028690933826  0.3792508859288332  0.7992745230089541  1.0000
  C   C50       1.0  0.4418488068957488  0.20070700683049833  0.6207551830490915  1.0000
  C   C51       1.0  0.4426502802099392  0.4659706251351634  0.7125622417166113  1.0000
  C   C52       1.0  0.5572992236371023  0.2874324868214798  0.5340185689352098  1.0000
  C   C53       1.0  0.5579052596462049  0.9200298913329232  0.6207425415326213  1.0000
  C   C54       1.0  0.44186568325972797  0.9200138863869682  0.7992734906721852  1.0000
  C   C55       1.0  0.44268860837321716  0.746592020418184  0.5340191452717138  1.0000
  C   C56       1.0  0.5573321601916278  0.7465776986264814  0.7125668832562939  1.0000
  C   C57       1.0  0.5578830402633983  0.20073691341580255  0.08000800905277575  1.0000
  C   C58       1.0  0.4418424891262589  0.37924900068851736  0.07995368591414842  1.0000
  C   C59       1.0  0.442613326922043  0.28744612834172756  0.2534204338593398  1.0000
  C   C60       1.0  0.5572832353907984  0.46599825816265644  0.2534172957861004  1.0000
  O   O1        1.0  0.7349381144585294  0.5580309889253813  0.550559092685923  1.0000
  O   O2        1.0  0.7349432618276523  0.49254284776048257  0.44197203048342004  1.0000
  O   O3        1.0  0.7349584283306003  0.44944560567618896  0.5074652920228929  1.0000
  O   O4        1.0  0.2652009097189705  0.5580316827446338  0.5074550815231902  1.0000
  O   O5        1.0  0.26518633606239933  0.49254477247872325  0.55056585702323  1.0000
  O   O6        1.0  0.2651839302527819  0.44943997086899384  0.4419733687176545  1.0000
  O   O7        1.0  0.7343289335014163  0.17411778807890224  0.8913752791551063  1.0000
  O   O8        1.0  0.7343212209979697  0.2172275485119638  0.8258818540321612  1.0000
  O   O9        1.0  0.7343390502288046  0.10862999433888379  0.7827782603286266  1.0000
  O   O10       1.0  0.26453194996441454  0.2172129503122803  0.8913921956405275  1.0000
  O   O11       1.0  0.26455472545605124  0.10860929695466824  0.8258565325713789  1.0000
  O   O12       1.0  0.26453451332129424  0.17415075379033595  0.7827852437517961  1.0000
  O   O13       1.0  0.7488781092326705  0.4061264592163098  0.7823356741021072  1.0000
  O   O14       1.0  0.4195803992089325  0.4013480952832892  0.8419064377616579  1.0000
  O   O15       1.0  0.2510348320778491  0.2176394990555222  0.5938553647042822  1.0000
  O   O16       1.0  0.5801614501707562  0.15807604051332894  0.5986809146682363  1.0000
  O   O17       1.0  0.2518911737236352  0.449093236754649  0.7395155025745979  1.0000
  O   O18       1.0  0.5814023808755097  0.5085645284454825  0.7346343775792974  1.0000
  O   O19       1.0  0.747956697366938  0.26047299791557765  0.5509005274424723  1.0000
  O   O20       1.0  0.41865136766161737  0.2653674699907781  0.4914156210133456  1.0000
  O   O21       1.0  0.7488634097884699  0.8762118759901653  0.5938680827440237  1.0000
  O   O22       1.0  0.41968460196432744  0.9405740456980424  0.5986452982512988  1.0000
  O   O23       1.0  0.25106441121310047  0.876186344362722  0.7823486889539951  1.0000
  O   O24       1.0  0.5802402306239572  0.9405618437885579  0.8419006303579268  1.0000
  O   O25       1.0  0.2519515848303159  0.790420545700151  0.5508854078419819  1.0000
  O   O26       1.0  0.5814881308515895  0.7260700773412623  0.4914283790902801  1.0000
  O   O27       1.0  0.7479918154814771  0.7904169071707584  0.7395188871431345  1.0000
  O   O28       1.0  0.41872908850672996  0.7260347032471441  0.73463352563725  1.0000
  O   O29       1.0  0.7488608717421459  0.21767778366547216  0.12382342580225723  1.0000
  O   O30       1.0  0.4195384296995712  0.15810591616529726  0.05947886570640293  1.0000
  O   O31       1.0  0.2510633286935899  0.40615297413749823  0.12378394516380106  1.0000
  O   O32       1.0  0.5801001843605463  0.4013231508003656  0.05938966058526066  1.0000
  O   O33       1.0  0.2518591614083547  0.26049570724547516  0.20959279348553395  1.0000
  O   O34       1.0  0.5813135339607741  0.2653752428538069  0.27395092215810735  1.0000
  O   O35       1.0  0.7479281784321898  0.44911805386119846  0.20957543272899684  1.0000
  O   O36       1.0  0.41861031133048243  0.5085995653881453  0.2739535508069651  1.0000
