data_image0
_chemical_formula_structural       Cd4H20C24N8Cl4O20
_chemical_formula_sum              "Cd4 H20 C24 N8 Cl4 O20"
_cell_length_a       7.236991978110245
_cell_length_b       10.083433791507334
_cell_length_c       12.317345083834486
_cell_angle_alpha    89.99898578467942
_cell_angle_beta     84.73374113157507
_cell_angle_gamma    89.9994851713485

_space_group_name_H-M_alt    "P 1"
_space_group_IT_number       1

loop_
  _space_group_symop_operation_xyz
  'x, y, z'

loop_
  _atom_site_type_symbol
  _atom_site_label
  _atom_site_symmetry_multiplicity
  _atom_site_fract_x
  _atom_site_fract_y
  _atom_site_fract_z
  _atom_site_occupancy
  Cd  Cd1       1.0  0.8587970591323214  0.11411806908060385  0.5922762082393547  1.0000
  Cd  Cd2       1.0  0.6411981042450136  0.6141207245475188  0.9077195822128632  1.0000
  Cd  Cd3       1.0  0.14118905727284672  0.8858820613611657  0.4077249557398588  1.0000
  Cd  Cd4       1.0  0.3588033356539598  0.3858774224072548  0.0922805616627045  1.0000
  H   H1        1.0  0.19167492836243136  0.9214238130203826  0.9396445665831338  1.0000
  H   H2        1.0  0.30832727150360034  0.42142807403183014  0.5603527783429669  1.0000
  H   H3        1.0  0.808339971977034  0.07857334213626642  0.0603586512786123  1.0000
  H   H4        1.0  0.6916744038260064  0.5785720562724137  0.4396571279792667  1.0000
  H   H5        1.0  0.12946286179710143  0.4892028025242824  0.8806342448304463  1.0000
  H   H6        1.0  0.3705274183062244  0.9892100480545452  0.619363081429988  1.0000
  H   H7        1.0  0.8705457431727341  0.5107765017657047  0.1193519680686208  1.0000
  H   H8        1.0  0.6294584108194955  0.0107999996193371  0.3806405277522771  1.0000
  H   H9        1.0  0.9647556676309322  0.40246859148322056  0.7203063706123061  1.0000
  H   H10       1.0  0.5352491501231713  0.9024695806533818  0.779681810439449  1.0000
  H   H11       1.0  0.03524057394812273  0.597523605284323  0.2796791948504875  1.0000
  H   H12       1.0  0.4647614574301074  0.09753947533310743  0.22031088569958968  1.0000
  H   H13       1.0  0.512835063460571  0.23452857256739895  0.6802504689328686  1.0000
  H   H14       1.0  0.9871769049412581  0.734527987004576  0.8197539107497748  1.0000
  H   H15       1.0  0.48716985920765415  0.7654804833005572  0.3197553245888757  1.0000
  H   H16       1.0  0.012832222601616605  0.2654681765441964  0.180239619213161  1.0000
  H   H17       1.0  0.6229902674051216  0.18977265338394744  0.7759365092332545  1.0000
  H   H18       1.0  0.8770201929803534  0.6897786822681625  0.7240620359398663  1.0000
  H   H19       1.0  0.37701327096135634  0.8102294604084009  0.2240693029775827  1.0000
  H   H20       1.0  0.12298411136780629  0.3102145060585145  0.2759372556024786  1.0000
  C   C1        1.0  0.028695491731348038  0.9767947491189376  0.8036312374030602  1.0000
  C   C2        1.0  0.47131086744683176  0.476799175063583  0.6963717507802443  1.0000
  C   C3        1.0  0.9713120082272158  0.02319744738856851  0.1963761491467011  1.0000
  C   C4        1.0  0.5286988266275972  0.5232138476258259  0.3036404888909061  1.0000
  C   C5        1.0  0.07672013654772067  0.12023988482810923  0.830443723910129  1.0000
  C   C6        1.0  0.4232818142358639  0.620251722399104  0.6695531537184252  1.0000
  C   C7        1.0  0.923281590680034  0.8797394193636451  0.169553974827096  1.0000
  C   C8        1.0  0.5767120336894893  0.37976130040336653  0.33045278888465657  1.0000
  C   C9        1.0  0.1753783225926854  0.16822036516408906  0.9166077680824997  1.0000
  C   C10       1.0  0.3246151747375308  0.6682256580600313  0.5833852653068092  1.0000
  C   C11       1.0  0.8246444128439948  0.8317876991545606  0.0833758129454765  1.0000
  C   C12       1.0  0.6753574294276634  0.3317784392305327  0.4166250324006526  1.0000
  C   C13       1.0  0.27077228311407714  0.0907242062139133  0.0022252418873805017  1.0000
  C   C14       1.0  0.22922213582874215  0.5907343817958548  0.49777155122734484  1.0000
  C   C15       1.0  0.7292479191497421  0.9092719573029768  0.9977681389654551  1.0000
  C   C16       1.0  0.7707478911393084  0.40926971551898844  0.5022371535743417  1.0000
  C   C17       1.0  0.11534470098487054  0.38350488661570387  0.8649974595210993  1.0000
  C   C18       1.0  0.38464951630950134  0.8835047808352955  0.6350013622135222  1.0000
  C   C19       1.0  0.8846451415762644  0.6164843349174235  0.1349955163431744  1.0000
  C   C20       1.0  0.6153420416926708  0.11649931648500464  0.3650005422735347  1.0000
  C   C21       1.0  0.024470303883312335  0.3363038931281609  0.7774843045149851  1.0000
  C   C22       1.0  0.475542814565891  0.8363093593703824  0.7225116989582503  1.0000
  C   C23       1.0  0.9755452227761481  0.6636773945932151  0.22250181517589604  1.0000
  C   C24       1.0  0.5244556650656022  0.1637076303635325  0.277490112241523  1.0000
  N   N1        1.0  0.005792472564103002  0.20692655758529813  0.7618366556465049  1.0000
  N   N2        1.0  0.49421902027360426  0.7069226613025208  0.7381637065146976  1.0000
  N   N3        1.0  0.9942204250603625  0.7930646472906132  0.23816007880269305  1.0000
  N   N4        1.0  0.5057777878589251  0.2930824277030339  0.26184056868508077  1.0000
  N   N5        1.0  0.19042168857088637  0.3002882678260478  0.9318266295825453  1.0000
  N   N6        1.0  0.3095691041097837  0.8002979336727306  0.5681750848836913  1.0000
  N   N7        1.0  0.8095812313878241  0.699713846035529  0.0681726805338485  1.0000
  N   N8        1.0  0.6904145747544349  0.19971013048857605  0.43183506368492175  1.0000
  Cl  Cl1       1.0  0.1947117889701317  0.11967175360508973  0.4965567053800228  1.0000
  Cl  Cl2       1.0  0.30528417309939465  0.6196659272336903  0.0034355739927321013  1.0000
  Cl  Cl3       1.0  0.8052706531114352  0.8803303603407217  0.5034404390428336  1.0000
  Cl  Cl4       1.0  0.6947149768435069  0.3803292445928578  0.9965605317236736  1.0000
  O   O1        1.0  0.9272881286852197  0.9564673960037241  0.7286795020208388  1.0000
  O   O2        1.0  0.5727138461121442  0.4564677166564551  0.7713152504765547  1.0000
  O   O3        1.0  0.07271379001466018  0.043513891655656806  0.2713165665187063  1.0000
  O   O4        1.0  0.42729532533442705  0.5435383640307309  0.2286896720588274  1.0000
  O   O5        1.0  0.09105360846196221  0.880978410138546  0.8592735039890939  1.0000
  O   O6        1.0  0.4089517114605314  0.3809823819609265  0.6407252052416581  1.0000
  O   O7        1.0  0.9089654009777135  0.11901180304469962  0.1407182653623451  1.0000
  O   O8        1.0  0.5910547870308988  0.6190266739193576  0.3592789394580223  1.0000
  O   O9        1.0  0.26504389547680063  0.9619115512389059  0.004726002180774501  1.0000
  O   O10       1.0  0.23495763446902632  0.4619241033945303  0.4952758368667035  1.0000
  O   O11       1.0  0.734954253114083  0.0380796537216241  0.9952668618365478  1.0000
  O   O12       1.0  0.7650301973662155  0.5380928862857389  0.504734255720912  1.0000
  O   O13       1.0  0.3513718020540324  0.15266246987767576  0.07082795280896191  1.0000
  O   O14       1.0  0.14861677779573063  0.6526695948161106  0.42916475636542367  1.0000
  O   O15       1.0  0.6486248664222958  0.8473346854326211  0.9291657448956344  1.0000
  O   O16       1.0  0.8513630352672835  0.34733946110726793  0.5708430028373286  1.0000
  O   O17       1.0  0.579104748115448  0.15647431367727196  0.7083448058587295  1.0000
  O   O18       1.0  0.9208993501739684  0.6564776855170822  0.7916526851948549  1.0000
  O   O19       1.0  0.4208821781476857  0.843531767065528  0.2916612299884918  1.0000
  O   O20       1.0  0.07910543288191012  0.34351550285036586  0.20834253088923296  1.0000
