data_image0
_chemical_formula_structural       Cd4H32C36O20
_chemical_formula_sum              "Cd4 H32 C36 O20"
_cell_length_a       7.54740755038222
_cell_length_b       10.747535423356913
_cell_length_c       11.850786187036007
_cell_angle_alpha    89.99986222789059
_cell_angle_beta     89.99981065477772
_cell_angle_gamma    108.46260403149756

_space_group_name_H-M_alt    "P 1"
_space_group_IT_number       1

loop_
  _space_group_symop_operation_xyz
  'x, y, z'

loop_
  _atom_site_type_symbol
  _atom_site_label
  _atom_site_symmetry_multiplicity
  _atom_site_fract_x
  _atom_site_fract_y
  _atom_site_fract_z
  _atom_site_occupancy
  Cd  Cd1       1.0  0.1495599554853159  0.46902348161496843  0.2995330480880014  1.0000
  Cd  Cd2       1.0  0.3504424520830653  0.5309778746943932  0.7995325088233614  1.0000
  Cd  Cd3       1.0  0.8504418411722695  0.5309774373178655  0.7004668260946829  1.0000
  Cd  Cd4       1.0  0.6495588948279121  0.46902206332148905  0.20046652153498457  1.0000
  H   H1        1.0  0.9804012177614183  0.6375151047398262  0.3904955778212411  1.0000
  H   H2        1.0  0.5195999387170505  0.3624845642872714  0.890495255355944  1.0000
  H   H3        1.0  0.019600129146553492  0.3624848332742657  0.6095042963629709  1.0000
  H   H4        1.0  0.4803987632402738  0.6375153846665499  0.1095079941345247  1.0000
  H   H5        1.0  0.12693137991798417  0.6399042676760942  0.4894004585302624  1.0000
  H   H6        1.0  0.373069227309614  0.36009530134327145  0.9893993986237178  1.0000
  H   H7        1.0  0.8730681947680595  0.36009469489091833  0.510600259482743  1.0000
  H   H8        1.0  0.6269263799654611  0.6399036776422875  0.0106021632193105  1.0000
  H   H9        1.0  0.9320333594706016  0.6753849424945386  0.995642780897242  1.0000
  H   H10       1.0  0.5679648806628705  0.3246182200725301  0.4956387419158119  1.0000
  H   H11       1.0  0.06796534249572525  0.32461500646465424  0.0043579371156142  1.0000
  H   H12       1.0  0.4320382384760464  0.6753826933940202  0.504357756961987  1.0000
  H   H13       1.0  0.16794746082286596  0.7110312709355142  0.9531189400164521  1.0000
  H   H14       1.0  0.3320521355837798  0.28897435410902267  0.4531161111832489  1.0000
  H   H15       1.0  0.8320539128556137  0.288971615302863  0.046883465642153496  1.0000
  H   H16       1.0  0.6679483386044822  0.7110265702972568  0.5468837630008068  1.0000
  H   H17       1.0  0.9259530311257722  0.799148726133822  0.20905264517146802  1.0000
  H   H18       1.0  0.5740472208506093  0.200852705364305  0.7090466521910769  1.0000
  H   H19       1.0  0.0740487655258093  0.20085219279542338  0.7909489166629555  1.0000
  H   H20       1.0  0.42595544853269723  0.7991472271799221  0.2909515343400102  1.0000
  H   H21       1.0  0.9943316160783766  0.027925647500254096  0.2743182782377502  1.0000
  H   H22       1.0  0.5056681716492692  0.9720755068178945  0.7743099119425807  1.0000
  H   H23       1.0  0.005665313654020485  0.9720733260046968  0.7256866589073923  1.0000
  H   H24       1.0  0.4943327255211046  0.027923450284632195  0.22568658693968052  1.0000
  H   H25       1.0  0.39428206639595237  0.1606369284746876  0.0056294177906935  1.0000
  H   H26       1.0  0.10571714194959728  0.8393656979549321  0.5056245045121486  1.0000
  H   H27       1.0  0.605715789621158  0.8393669551009638  0.9943738316964  1.0000
  H   H28       1.0  0.8942837552207834  0.1606332591475876  0.49437199437011264  1.0000
  H   H29       1.0  0.3234997513219897  0.9323159683907819  0.9388739120139746  1.0000
  H   H30       1.0  0.17649817420170424  0.0676887417111729  0.43886935858658654  1.0000
  H   H31       1.0  0.6764954597564741  0.067687926131768  0.0611293374758901  1.0000
  H   H32       1.0  0.8235044951875993  0.9323111908366427  0.5611271402927542  1.0000
  C   C1        1.0  0.10586637934154207  0.6186551147408395  0.1137680410382345  1.0000
  C   C2        1.0  0.3941342817344663  0.3813490087787628  0.6137660469446118  1.0000
  C   C3        1.0  0.894130577191362  0.3813468070063024  0.8862309893225699  1.0000
  C   C4        1.0  0.6058692603625533  0.6186499373697031  0.386233827238371  1.0000
  C   C5        1.0  0.0768446503086295  0.7115695223024402  0.0252767952613411  1.0000
  C   C6        1.0  0.42315177333775006  0.2884330316299709  0.5252724102984416  1.0000
  C   C7        1.0  0.9231514067160518  0.28843043760185344  0.9747247665801524  1.0000
  C   C8        1.0  0.576850896048555  0.711566900916047  0.4747249324067724  1.0000
  C   C9        1.0  0.12186745677667701  0.85003567768959  0.0696171159149301  1.0000
  C   C10       1.0  0.37812955096237033  0.14996864976663463  0.5696122821136668  1.0000
  C   C11       1.0  0.8781273045551786  0.14996723591601577  0.9303852897505962  1.0000
  C   C12       1.0  0.6218731184299389  0.8500312827829718  0.4303833729397937  1.0000
  C   C13       1.0  0.03041241809161501  0.8778600904875946  0.1648606519158662  1.0000
  C   C14       1.0  0.4695852078402752  0.12214087876555621  0.6648548425129661  1.0000
  C   C15       1.0  0.9695854111519964  0.12214084486198827  0.8351409099227071  1.0000
  C   C16       1.0  0.5304183342687522  0.8778580673900789  0.3351416563665239  1.0000
  C   C17       1.0  0.0686500174143703  0.006367877817673698  0.20197386280941743  1.0000
  C   C18       1.0  0.4313469215426479  0.993634901122199  0.7019696183626324  1.0000
  C   C19       1.0  0.9313478118262425  0.9936330575301257  0.798028542855029  1.0000
  C   C20       1.0  0.5686531029050101  0.006365042370717303  0.2980277243453457  1.0000
  C   C21       1.0  0.19986909269530884  0.11001926162733609  0.1451571288510038  1.0000
  C   C22       1.0  0.3001304456151887  0.8899827667535194  0.6451508534796275  1.0000
  C   C23       1.0  0.8001269643233687  0.8899806982733768  0.854846120642236  1.0000
  C   C24       1.0  0.6998757414324784  0.11001616845521768  0.35484564539709856  1.0000
  C   C25       1.0  0.2920282545968647  0.08186663293563609  0.0505819025578447  1.0000
  C   C26       1.0  0.20796976126764816  0.9181367889724892  0.5505766035584614  1.0000
  C   C27       1.0  0.7079673794487038  0.918135294274208  0.9494221907595772  1.0000
  C   C28       1.0  0.7920337808473762  0.08186215718672679  0.4494182076692823  1.0000
  C   C29       1.0  0.25291505745340737  0.9532032594480884  0.0133294614838135  1.0000
  C   C30       1.0  0.24707880623969203  0.046799356171781895  0.5133251268328038  1.0000
  C   C31       1.0  0.7470752867238702  0.046798689660910504  0.986672100361524  1.0000
  C   C32       1.0  0.752925185618935  0.953200570902588  0.4866713720451514  1.0000
  C   C33       1.0  0.2368938876209868  0.24733428044316244  0.1842167968417669  1.0000
  C   C34       1.0  0.2631071450560826  0.7526685574910701  0.6842125848088969  1.0000
  C   C35       1.0  0.7631070362988766  0.7526676248710941  0.815788140295993  1.0000
  C   C36       1.0  0.7368950745806162  0.2473303941362204  0.3157847578978519  1.0000
  O   O1        1.0  0.9668772612844805  0.5247415456048188  0.1519942381348756  1.0000
  O   O2        1.0  0.5331242424862452  0.4752561935869223  0.6519944864243571  1.0000
  O   O3        1.0  0.03312273638368169  0.47525544965844085  0.8480031045763283  1.0000
  O   O4        1.0  0.4668779771444493  0.5247427580367869  0.3480045439341382  1.0000
  O   O5        1.0  0.26855786516505736  0.6344481650082159  0.1523737305186401  1.0000
  O   O6        1.0  0.23143987635524615  0.36555580549800487  0.6523721124988243  1.0000
  O   O7        1.0  0.7314395411084507  0.36555473765228896  0.8476278313182419  1.0000
  O   O8        1.0  0.7685636657417663  0.634443140650461  0.3476277616841585  1.0000
  O   O9        1.0  0.15635656880651536  0.2652434551628032  0.2750437475100185  1.0000
  O   O10       1.0  0.3436500071697921  0.7347609369742968  0.7750377174659278  1.0000
  O   O11       1.0  0.8436470000459907  0.7347584392009806  0.7249628772767237  1.0000
  O   O12       1.0  0.6563526622135145  0.2652389955699306  0.2249604690651594  1.0000
  O   O13       1.0  0.3429963494915285  0.3438760123036815  0.126648248127097  1.0000
  O   O14       1.0  0.157002870711601  0.6561251137555217  0.6266469999373854  1.0000
  O   O15       1.0  0.6570019294986906  0.6561259039628524  0.8733541575358146  1.0000
  O   O16       1.0  0.8429984762023822  0.34387482426215854  0.3733511865950874  1.0000
  O   O17       1.0  0.10651038232297344  0.6304098067614703  0.4058051925204468  1.0000
  O   O18       1.0  0.3934899200508824  0.3695881554538616  0.9058032252884375  1.0000
  O   O19       1.0  0.8934887426134637  0.36958817488680745  0.5941955254941007  1.0000
  O   O20       1.0  0.6065078824132257  0.6304098316660712  0.0941983365533616  1.0000
