data_image0
_chemical_formula_structural       U4H40C56O32
_chemical_formula_sum              "U4 H40 C56 O32"
_cell_length_a       8.709952992046082
_cell_length_b       10.141120840941076
_cell_length_c       16.08738946372065
_cell_angle_alpha    96.13513875204552
_cell_angle_beta     89.9998569911618
_cell_angle_gamma    89.99967660452342

_space_group_name_H-M_alt    "P 1"
_space_group_IT_number       1

loop_
  _space_group_symop_operation_xyz
  'x, y, z'

loop_
  _atom_site_type_symbol
  _atom_site_label
  _atom_site_symmetry_multiplicity
  _atom_site_fract_x
  _atom_site_fract_y
  _atom_site_fract_z
  _atom_site_occupancy
  U   U1        1.0  0.5525873498161219  0.29323921206100306  0.5863243560484789  1.0000
  U   U2        1.0  0.052599110603459606  0.2067551781479651  0.4136760886045819  1.0000
  U   U3        1.0  0.44739410900979243  0.7067509441196336  0.41367726064271426  1.0000
  U   U4        1.0  0.947414495339551  0.7932399308362577  0.5863246092692973  1.0000
  H   H1        1.0  0.46433457944173284  0.3427291603879965  0.8866566586353952  1.0000
  H   H2        1.0  0.9643339372572728  0.15726902845411667  0.11334099296201566  1.0000
  H   H3        1.0  0.535666397260677  0.6572699097560457  0.11334305549650026  1.0000
  H   H4        1.0  0.03566703945286782  0.8427290410594921  0.8866567908033857  1.0000
  H   H5        1.0  0.8036705056160403  0.04914847044788929  0.8040496098014954  1.0000
  H   H6        1.0  0.30366447431909194  0.4508475841227692  0.19594936195323945  1.0000
  H   H7        1.0  0.19633047108873575  0.950848625046191  0.19595183980938904  1.0000
  H   H8        1.0  0.6963330580459371  0.5491524748335903  0.8040497953427346  1.0000
  H   H9        1.0  0.4804401960770478  0.27743719749548734  0.03161966945238249  1.0000
  H   H10       1.0  0.9804374496711363  0.22256289411718191  0.968378706663138  1.0000
  H   H11       1.0  0.5195607806205375  0.7225628673654538  0.9683807314433391  1.0000
  H   H12       1.0  0.019562378918990903  0.7774371618764346  0.031619828829569485  1.0000
  H   H13       1.0  0.8241287746750814  0.9866788798327731  0.9500632167631191  1.0000
  H   H14       1.0  0.3241239639744081  0.5133185746168321  0.04993676399330838  1.0000
  H   H15       1.0  0.17586990580122835  0.013319210384175094  0.04993891961353108  1.0000
  H   H16       1.0  0.6758747164942563  0.48668347081357394  0.950063145028025  1.0000
  H   H17       1.0  0.6740784355208833  0.4770737359903662  0.2487531870661498  1.0000
  H   H18       1.0  0.17407259679215772  0.022924972722186986  0.7512455117543906  1.0000
  H   H19       1.0  0.32592254117815866  0.5229263259138149  0.751246592028245  1.0000
  H   H20       1.0  0.8259272317979696  0.977075083271437  0.2487530237383097  1.0000
  H   H21       1.0  0.7287602907151296  0.34946570995205656  0.11131398068378927  1.0000
  H   H22       1.0  0.22875642943964183  0.15053172277610827  0.8886845607890661  1.0000
  H   H23       1.0  0.2712406859858234  0.6505333631487531  0.8886863552494331  1.0000
  H   H24       1.0  0.771242251040576  0.8494673444171357  0.11131453154343518  1.0000
  H   H25       1.0  0.5339438612805766  0.00014161692820379985  0.20062594908419124  1.0000
  H   H26       1.0  0.03394503846058681  0.4998608013355721  0.7993744249741537  1.0000
  H   H27       1.0  0.46605252296489413  0.9998594426615809  0.7993751385792364  1.0000
  H   H28       1.0  0.9660536420162703  0.5001392576178034  0.20062473232084693  1.0000
  H   H29       1.0  0.4813515651460919  0.12827281817356348  0.3392518837924569  1.0000
  H   H30       1.0  0.9813527264942227  0.3717322274926146  0.6607468155925318  1.0000
  H   H31       1.0  0.5186471153211161  0.8717292302136173  0.6607486470302033  1.0000
  H   H32       1.0  0.018647102093993305  0.6282688173043738  0.3392511630613413  1.0000
  H   H33       1.0  0.7249922167986683  0.08936987696672818  0.4614862539599186  1.0000
  H   H34       1.0  0.22498600110903774  0.4106335318271589  0.5385139272586483  1.0000
  H   H35       1.0  0.2750099080203867  0.9106281984574307  0.5385127734071771  1.0000
  H   H36       1.0  0.7750115312665502  0.589362566002208  0.4614862137899819  1.0000
  H   H37       1.0  0.6863215789167542  0.0138304667345608  0.5390796959250677  1.0000
  H   H38       1.0  0.18632441911518074  0.48617114472951756  0.460917311687197  1.0000
  H   H39       1.0  0.313678249663731  0.986171578692861  0.4609202130952993  1.0000
  H   H40       1.0  0.8136754094619364  0.5138318924580431  0.5390826622956693  1.0000
  C   C1        1.0  0.6149158446320584  0.23693706446253762  0.750737134356896  1.0000
  C   C2        1.0  0.11491307953620125  0.2630579758397572  0.2492595391606541  1.0000
  C   C3        1.0  0.3850874282973607  0.7630610139154044  0.24926251481056022  1.0000
  C   C4        1.0  0.8850878971580161  0.7369430807813159  0.7507409266975669  1.0000
  C   C5        1.0  0.6347493883199962  0.20223389163017194  0.8369834022927021  1.0000
  C   C6        1.0  0.13474909551884912  0.29776007451440717  0.16301752536133304  1.0000
  C   C7        1.0  0.36525158838477984  0.7977632038639081  0.16301804731817524  1.0000
  C   C8        1.0  0.8652518811902896  0.7022370121093644  0.8369820588455565  1.0000
  C   C9        1.0  0.5444821838992554  0.2660498099868035  0.9013960867041815  1.0000
  C   C10       1.0  0.044479160249416304  0.2339465940818854  0.09860201437451369  1.0000
  C   C11       1.0  0.45551879280169777  0.7339492631140059  0.09860424922904087  1.0000
  C   C12       1.0  0.9555206683445333  0.7660514843050024  0.9013976347958488  1.0000
  C   C13       1.0  0.7355171557625442  0.1006507968939729  0.8543452268488634  1.0000
  C   C14       1.0  0.23551398864731962  0.39934660662586197  0.14565454681051895  1.0000
  C   C15       1.0  0.26448267282512467  0.8993482791665879  0.14565573088665215  1.0000
  C   C16       1.0  0.7644846918280735  0.6006534552842808  0.8543452322858156  1.0000
  C   C17       1.0  0.5534614948683939  0.23013726183515348  0.9822564806291465  1.0000
  C   C18       1.0  0.05345976250001172  0.2698630625990788  0.017741865128151298  1.0000
  C   C19       1.0  0.4465394818306479  0.7698628000690204  0.017743298465241284  1.0000
  C   C20       1.0  0.9465389179797514  0.7301369904407622  0.9822560485641885  1.0000
  C   C21       1.0  0.747119899696422  0.06547915474966709  0.9352684469760459  1.0000
  C   C22       1.0  0.2471157327500322  0.4345181884653469  0.06473130708165797  1.0000
  C   C23       1.0  0.2528822251216312  0.9345179377846619  0.0647323808325311  1.0000
  C   C24       1.0  0.7528817996135404  0.56548187344778  0.935268472015643  1.0000
  C   C25       1.0  0.6567906945975113  0.13059757566801977  0.9990000060128917  1.0000
  C   C26       1.0  0.15678839452681362  0.36940122584834967  0.000999343813155898  1.0000
  C   C27       1.0  0.3432068377616987  0.869402495115409  0.001001638488396813  1.0000
  C   C28       1.0  0.8432114340551281  0.6306008166223052  0.998999943405877  1.0000
  C   C29       1.0  0.5562741068314099  0.3845044068854475  0.3859846305268632  1.0000
  C   C30       1.0  0.056267157873449505  0.11550384885140366  0.6140167173883384  1.0000
  C   C31       1.0  0.4437280179664428  0.6154986362096792  0.6140165870567171  1.0000
  C   C32       1.0  0.9437292263730228  0.8844981936282034  0.38598256983360807  1.0000
  C   C33       1.0  0.5764686795975323  0.31043547168272306  0.30268045593317777  1.0000
  C   C34       1.0  0.07646545526060321  0.18956572788816564  0.697318537719198  1.0000
  C   C35       1.0  0.42353344521333014  0.6895645902184667  0.6973193231602436  1.0000
  C   C36       1.0  0.9235343733266179  0.8104343340189923  0.3026812413761632  1.0000
  C   C37       1.0  0.6433369574455272  0.3726842123943469  0.23776498690848052  1.0000
  C   C38       1.0  0.14333383489690021  0.127317628419334  0.7622333369328371  1.0000
  C   C39       1.0  0.35666401924723357  0.6273168471835007  0.7622361007510746  1.0000
  C   C40       1.0  0.8566659936961402  0.8726824216607549  0.23776395495720942  1.0000
  C   C41       1.0  0.6730941294126681  0.3015668984710587  0.16073595293831736  1.0000
  C   C42       1.0  0.17309248356310292  0.1984338047805138  0.8392641210692984  1.0000
  C   C43       1.0  0.3269125878473958  0.6984321746148366  0.8392643829900589  1.0000
  C   C44       1.0  0.8269130855832291  0.8015662571117232  0.16073565802120973  1.0000
  C   C45       1.0  0.6333527021367119  0.1671629880903964  0.148870184590109  1.0000
  C   C46       1.0  0.13334898128764652  0.3328369270131332  0.8511292697974964  1.0000
  C   C47       1.0  0.36664942267460543  0.832836087964203  0.8511307731434739  1.0000
  C   C48       1.0  0.866648551072558  0.6671641266601253  0.14887057426230393  1.0000
  C   C49       1.0  0.56411931877161  0.10444053203953976  0.21236657590510072  1.0000
  C   C50       1.0  0.06411663456309213  0.3955617293917155  0.7876337471758884  1.0000
  C   C51       1.0  0.4358793616926847  0.895561522261175  0.7876351985202202  1.0000
  C   C52       1.0  0.9358797497064945  0.6044343566135593  0.21236390666839353  1.0000
  C   C53       1.0  0.5359809834215029  0.17589583681449028  0.2893767218325962  1.0000
  C   C54       1.0  0.035980268950758905  0.32410755966924387  0.710623091946857  1.0000
  C   C55       1.0  0.46401999326934634  0.8241062115667217  0.7106238089881243  1.0000
  C   C56       1.0  0.9640195596297261  0.6758944857581851  0.2893768170735099  1.0000
  O   O1        1.0  0.5140580959507234  0.3222295366528271  0.4466695745037227  1.0000
  O   O2        1.0  0.014051025370456202  0.17777694020580972  0.5533286058027327  1.0000
  O   O3        1.0  0.4859463250736838  0.6777735005227965  0.5533303994752571  1.0000
  O   O4        1.0  0.9859453588779277  0.8222241134704402  0.44667123825803384  1.0000
  O   O5        1.0  0.5436086003862357  0.3437095773593199  0.7373870448099565  1.0000
  O   O6        1.0  0.043608761908480204  0.1562848536349789  0.2626121714196046  1.0000
  O   O7        1.0  0.4563958206405375  0.6562914851663418  0.2626146646480194  1.0000
  O   O8        1.0  0.9563945110291315  0.8437112382659252  0.7373867260215191  1.0000
  O   O9        1.0  0.6639268394828195  0.1593128396038637  0.6881016183293978  1.0000
  O   O10       1.0  0.16392098336709893  0.3406849389837133  0.3118988980834914  1.0000
  O   O11       1.0  0.3360752853251371  0.8406872282108676  0.31189940436668445  1.0000
  O   O12       1.0  0.8360708084354586  0.6593161117476922  0.6881003241798281  1.0000
  O   O13       1.0  0.6703935172491883  0.08594446022009088  0.07657566972243757  1.0000
  O   O14       1.0  0.17039237771685123  0.41405625411033475  0.9234237870460331  1.0000
  O   O15       1.0  0.3296051632247555  0.9140556046468258  0.9234247311752238  1.0000
  O   O16       1.0  0.8296063027599987  0.5859438048430403  0.07657537024896748  1.0000
  O   O17       1.0  0.5840637247917188  0.5101418943036363  0.3951310186660065  1.0000
  O   O18       1.0  0.08405209418944541  0.989857790836275  0.6048675672381021  1.0000
  O   O19       1.0  0.41594069623942437  0.48985915935171676  0.6048688253879744  1.0000
  O   O20       1.0  0.9159419938415712  0.010142265172262898  0.39513096825945115  1.0000
  O   O21       1.0  0.731230959431237  0.38613612853026763  0.5830689141111518  1.0000
  O   O22       1.0  0.23122378965785378  0.1138632867120748  0.4169322403206904  1.0000
  O   O23       1.0  0.26878035025973196  0.6138669174977593  0.4169329252660034  1.0000
  O   O24       1.0  0.768763409690216  0.8861407333981357  0.5830659332313528  1.0000
  O   O25       1.0  0.3710493219026319  0.20796515451735326  0.5911600899086621  1.0000
  O   O26       1.0  0.8710429868972583  0.2920384927915407  0.40884115311563807  1.0000
  O   O27       1.0  0.6289596915430311  0.7920438450342075  0.4088427610467632  1.0000
  O   O28       1.0  0.12894650865808197  0.7079695002667705  0.5911585238871311  1.0000
  O   O29       1.0  0.6562133108829971  0.0915335556408152  0.5096820275170798  1.0000
  O   O30       1.0  0.15621307397193368  0.4084652488712519  0.4903173232827027  1.0000
  O   O31       1.0  0.34378996203823686  0.9084665092141573  0.49031837337670214  1.0000
  O   O32       1.0  0.8437856065087461  0.5915328324753873  0.5096829476899598  1.0000
