data_image0
_chemical_formula_structural       Zn2H24C44N6O20
_chemical_formula_sum              "Zn2 H24 C44 N6 O20"
_cell_length_a       16.3459539979299
_cell_length_b       18.049270035683097
_cell_length_c       17.561782456698936
_cell_angle_alpha    90.17019699551861
_cell_angle_beta     95.42593095647216
_cell_angle_gamma    92.57370686157229

_space_group_name_H-M_alt    "P 1"
_space_group_IT_number       1

loop_
  _space_group_symop_operation_xyz
  'x, y, z'

loop_
  _atom_site_type_symbol
  _atom_site_label
  _atom_site_symmetry_multiplicity
  _atom_site_fract_x
  _atom_site_fract_y
  _atom_site_fract_z
  _atom_site_occupancy
  Zn  Zn1       1.0  0.5890948719343854  0.5001692689569168  0.501712109963357  1.0000
  Zn  Zn2       1.0  0.4105156028709159  0.49957114075319  0.4983892641533529  1.0000
  H   H1        1.0  0.28545741238870886  0.583802608216061  0.5576446396617243  1.0000
  H   H2        1.0  0.13400644062646447  0.5854551428519272  0.555207445383182  1.0000
  H   H3        1.0  0.12127466178160519  0.38026382815981213  0.423864636377175  1.0000
  H   H4        1.0  0.8781284778007218  0.6206035691043538  0.5765344235791545  1.0000
  H   H5        1.0  0.8659900228265157  0.41615083395905134  0.4440555044955303  1.0000
  H   H6        1.0  0.7145309296913283  0.41710388409138943  0.442176134918057  1.0000
  H   H7        1.0  0.9953399818430951  0.43079895869007606  0.44870777007306367  1.0000
  H   H8        1.0  0.0043524865883596995  0.5707247563388265  0.5508397673101584  1.0000
  H   H9        1.0  0.38635637156478003  0.4913720027913657  0.7353349746701169  1.0000
  H   H10       1.0  0.39043760722845633  0.49539622001968553  0.8763936943732418  1.0000
  H   H11       1.0  0.6567250014586249  0.4996856855168304  0.8904050964441411  1.0000
  H   H12       1.0  0.3437855710934912  0.4991950489838218  0.10945990463982719  1.0000
  H   H13       1.0  0.610164529851886  0.5061494887136462  0.12389083588302437  1.0000
  H   H14       1.0  0.6139465067803725  0.5102548891635053  0.26496620120028774  1.0000
  H   H15       1.0  0.5949810171993376  0.5039147668205147  0.00447330526436218  1.0000
  H   H16       1.0  0.4057373491744514  0.49650800922767496  0.9956179015027685  1.0000
  H   H17       1.0  0.6296717370362046  0.2638941918155737  0.4819061847423569  1.0000
  H   H18       1.0  0.3681129907642243  0.2548397497251571  0.500739352501796  1.0000
  H   H19       1.0  0.6335663456994639  0.7456883701897826  0.5265857262690901  1.0000
  H   H20       1.0  0.3683892252361645  0.7349434079207028  0.48988663015241946  1.0000
  H   H21       1.0  0.33820112566230154  0.3745655665724641  0.4457516802559667  1.0000
  H   H22       1.0  0.6608938276403009  0.6246718278620734  0.5566273714788607  1.0000
  H   H23       1.0  0.6514032985337577  0.49199321392337225  0.6893798933605593  1.0000
  H   H24       1.0  0.3485574138692514  0.5036727476754166  0.3104985751003042  1.0000
  C   C1        1.0  0.5116372905342956  0.49188132299477866  0.6486789977553045  1.0000
  C   C2        1.0  0.49769037118818454  0.6473564455753973  0.5109968051318745  1.0000
  C   C3        1.0  0.48837847060573136  0.5080495532215183  0.3513973084533645  1.0000
  C   C4        1.0  0.5014174525499583  0.35228657087071  0.4888368035259845  1.0000
  C   C5        1.0  0.2459690095153064  0.539815016882166  0.5291003806087602  1.0000
  C   C6        1.0  0.161661629169636  0.5403125508645985  0.5272239762828335  1.0000
  C   C7        1.0  0.11340571469619931  0.482334276073303  0.4882496452285351  1.0000
  C   C8        1.0  0.15448462192645002  0.42683039406583134  0.4541551409178551  1.0000
  C   C9        1.0  0.24084801715235224  0.42912296811064016  0.45997852997857785  1.0000
  C   C10       1.0  0.023876395124034402  0.47735355153707115  0.48295438244419137  1.0000
  C   C11       1.0  0.9758265804576213  0.5241879326095287  0.5165485490464405  1.0000
  C   C12       1.0  0.8450601676625098  0.5740686362714557  0.5460631307152184  1.0000
  C   C13       1.0  0.8863057923796872  0.5189855776823579  0.5114704016606737  1.0000
  C   C14       1.0  0.83819846725401  0.4610134814144475  0.47234770068208587  1.0000
  C   C15       1.0  0.7539019138328557  0.46111258434168434  0.47081058245974106  1.0000
  C   C16       1.0  0.7586988750741241  0.5712523919264569  0.540785796858323  1.0000
  C   C17       1.0  0.517323453524469  0.4927955050576003  0.7326995458288081  1.0000
  C   C18       1.0  0.44498230554348345  0.49302991707938304  0.7705700538974725  1.0000
  C   C19       1.0  0.4476597870705276  0.49529617272976645  0.8492883475626414  1.0000
  C   C20       1.0  0.5244615890679964  0.49787074653324476  0.894357446703907  1.0000
  C   C21       1.0  0.5967081487429339  0.4976585350980686  0.8573364189394681  1.0000
  C   C22       1.0  0.5945014621335716  0.49478394919438534  0.7774270536761775  1.0000
  C   C23       1.0  0.5318000879998906  0.5007470079134891  0.9775745401923642  1.0000
  C   C24       1.0  0.4689150924880821  0.4997556058042323  0.022529693614643492  1.0000
  C   C25       1.0  0.40375321236093237  0.5016999857577602  0.14263262770380436  1.0000
  C   C26       1.0  0.47613624224297973  0.5024655112095786  0.10574881196277627  1.0000
  C   C27       1.0  0.5528722925007301  0.5056153864998267  0.15093217379558868  1.0000
  C   C28       1.0  0.5553751052855633  0.5078502985395731  0.22964335957087909  1.0000
  C   C29       1.0  0.4829017460646696  0.506981128270567  0.2673801163629435  1.0000
  C   C30       1.0  0.4057540506311738  0.5038810293522857  0.22254532064931704  1.0000
  C   C31       1.0  0.4991469280148734  0.269122035186129  0.49016779102558417  1.0000
  C   C32       1.0  0.5720567794351226  0.2322835066171365  0.4861461841542861  1.0000
  C   C33       1.0  0.5708186293957737  0.1555546988187544  0.4871893692548496  1.0000
  C   C34       1.0  0.49873329721130943  0.11120935200168701  0.49662223006691875  1.0000
  C   C35       1.0  0.42687258098160197  0.15112595497745931  0.502722237810012  1.0000
  C   C36       1.0  0.42592583229715325  0.22778089424312506  0.4975349062087346  1.0000
  C   C37       1.0  0.499170055766335  0.033518901816364605  0.4997564849748741  1.0000
  C   C38       1.0  0.5014316145852504  0.9661754995955365  0.5017230431751685  1.0000
  C   C39       1.0  0.5015153040616906  0.8884478623320788  0.5038782296963971  1.0000
  C   C40       1.0  0.5744985220950198  0.8490950841988012  0.5175722915577552  1.0000
  C   C41       1.0  0.5748701421599661  0.7722514145560739  0.5184556157300334  1.0000
  C   C42       1.0  0.5004087957208867  0.7305058285274413  0.5094428786332942  1.0000
  C   C43       1.0  0.42664266838146153  0.7669234869695316  0.49711984280622096  1.0000
  C   C44       1.0  0.4279487942121135  0.8435009105713576  0.49251753982294116  1.0000
  N   N1        1.0  0.2858553944075055  0.485719784067129  0.4958414852404259  1.0000
  N   N2        1.0  0.7138276587791167  0.5147070928295818  0.5046510949368326  1.0000
  N   N3        1.0  0.34861084736147063  0.11121896857682151  0.5163400166377414  1.0000
  N   N4        1.0  0.6492707864510263  0.12037393581007906  0.47774875345373846  1.0000
  N   N5        1.0  0.3480924209331421  0.8777630173590439  0.4738043882233711  1.0000
  N   N6        1.0  0.654983745446785  0.8900010132068914  0.5317768299746319  1.0000
  O   O1        1.0  0.5796848615013914  0.4895561151460582  0.616395693736834  1.0000
  O   O2        1.0  0.4410816333304409  0.49376218867585225  0.6114200509442398  1.0000
  O   O3        1.0  0.42735726141510366  0.6145875433605497  0.5032856829231562  1.0000
  O   O4        1.0  0.5661869589511569  0.6152946035497989  0.518868022828336  1.0000
  O   O5        1.0  0.41995246432400535  0.5052504540186079  0.3834032687580802  1.0000
  O   O6        1.0  0.558991264410224  0.5113458169448393  0.388993263622531  1.0000
  O   O7        1.0  0.5714305203123544  0.38540160627183434  0.49066085683739397  1.0000
  O   O8        1.0  0.43267852594576073  0.38373534463230646  0.4873292528236276  1.0000
  O   O9        1.0  0.2777222951722464  0.37355062118854937  0.42896207407780196  1.0000
  O   O10       1.0  0.7216468920137514  0.6262205156423948  0.572633884292479  1.0000
  O   O11       1.0  0.6666936417054996  0.4944171416389693  0.7459892479133358  1.0000
  O   O12       1.0  0.3334206164364274  0.5027887776714054  0.2538334548592474  1.0000
  O   O13       1.0  0.35277382767070975  0.056470830457549005  0.5584430302604203  1.0000
  O   O14       1.0  0.28480684866558903  0.13678143532296622  0.48547137322101724  1.0000
  O   O15       1.0  0.6462372881937242  0.0645610858363952  0.43649035194020047  1.0000
  O   O16       1.0  0.7121547768242422  0.15086225362979633  0.5109501593223982  1.0000
  O   O17       1.0  0.34669877433293556  0.930321059504351  0.428847909633177  1.0000
  O   O18       1.0  0.2884393121293272  0.8497571172130949  0.5035719353631549  1.0000
  O   O19       1.0  0.657521645945735  0.9472109255109443  0.5709497461219755  1.0000
  O   O20       1.0  0.7138351046189725  0.8627986563535118  0.5040799123424335  1.0000
