data_image0
_chemical_formula_structural       Zn2H16C40N12O28
_chemical_formula_sum              "Zn2 H16 C40 N12 O28"
_cell_length_a       13.961653492218462
_cell_length_b       15.331103240634167
_cell_length_c       17.17916036898312
_cell_angle_alpha    91.58737232779764
_cell_angle_beta     83.57988824704391
_cell_angle_gamma    89.18576469008146

_space_group_name_H-M_alt    "P 1"
_space_group_IT_number       1

loop_
  _space_group_symop_operation_xyz
  'x, y, z'

loop_
  _atom_site_type_symbol
  _atom_site_label
  _atom_site_symmetry_multiplicity
  _atom_site_fract_x
  _atom_site_fract_y
  _atom_site_fract_z
  _atom_site_occupancy
  Zn  Zn1       1.0  0.6014095202742666  0.4972358078539899  0.49793490924438544  1.0000
  Zn  Zn2       1.0  0.3987031843661839  0.49017708715945935  0.49869949389749735  1.0000
  H   H1        1.0  0.3197452115375015  0.5207497297779966  0.756030427105536  1.0000
  H   H2        1.0  0.6688140541665604  0.5595571654344199  0.2526439284948765  1.0000
  H   H3        1.0  0.6728361581445768  0.5865336805736946  0.11006084176730012  1.0000
  H   H4        1.0  0.3170034074146173  0.5470769634927778  0.9000026984112849  1.0000
  H   H5        1.0  0.07499808056176252  0.42082092148415734  0.397055539652861  1.0000
  H   H6        1.0  0.9252162741664164  0.4249325510173279  0.5955376723850848  1.0000
  H   H7        1.0  0.38709001998631715  0.4497546633775613  0.25274671935847703  1.0000
  H   H8        1.0  0.6193517132495144  0.588452465003158  0.7246022402038719  1.0000
  H   H9        1.0  0.2534372216795617  0.40964068882442456  0.40099804636662384  1.0000
  H   H10       1.0  0.746558685206125  0.42134885664765415  0.5934691237146978  1.0000
  H   H11       1.0  0.23911440872502251  0.5750987218664818  0.5980741713466459  1.0000
  H   H12       1.0  0.7599902139306141  0.5857553722980811  0.404051974389951  1.0000
  H   H13       1.0  0.3919317506401256  0.5883967201297295  0.012358979836861312  1.0000
  H   H14       1.0  0.6096188751089925  0.5446949550011908  0.983809302284115  1.0000
  H   H15       1.0  0.6254872581901625  0.9379256744934422  0.4492965796166358  1.0000
  H   H16       1.0  0.3876705262282201  0.05045256864434581  0.4534004687372146  1.0000
  C   C1        1.0  0.489384680477201  0.6649134412148782  0.4950523967559803  1.0000
  C   C2        1.0  0.5093551628044253  0.32504167946933643  0.5082742817051766  1.0000
  C   C3        1.0  0.521350898464945  0.49168442341788676  0.3482888348915126  1.0000
  C   C4        1.0  0.47807887697895524  0.5205071096755347  0.6474719342537582  1.0000
  C   C5        1.0  0.5273800341501911  0.5038588276152325  0.2620491251372457  1.0000
  C   C6        1.0  0.47089110383851823  0.5477971068240636  0.7317950090026386  1.0000
  C   C7        1.0  0.4498193871259629  0.4798311144297713  0.22177905591889413  1.0000
  C   C8        1.0  0.55270365108413  0.5794046137910912  0.7625935158364072  1.0000
  C   C9        1.0  0.45447484868245885  0.4923876049676963  0.14181073860891052  1.0000
  C   C10       1.0  0.5480148567682191  0.6007933788272198  0.8418744623665476  1.0000
  C   C11       1.0  0.5332164992618686  0.5328007054147149  0.0992446150974402  1.0000
  C   C12       1.0  0.4654896742300211  0.5846171505750065  0.8945784815912533  1.0000
  C   C13       1.0  0.61080701614042  0.5551989585425687  0.1412921518626646  1.0000
  C   C14       1.0  0.38249505124773014  0.5586050200526742  0.861015786979472  1.0000
  C   C15       1.0  0.6085996703936871  0.5408225480129476  0.22100263592149363  1.0000
  C   C16       1.0  0.38431988679703716  0.5417947629176895  0.7808864263101044  1.0000
  C   C17       1.0  0.5381265877549097  0.552933883291729  0.016428313879181602  1.0000
  C   C18       1.0  0.46315048913998413  0.57940029910106  0.9793767902691642  1.0000
  C   C19       1.0  0.5655266154187187  0.9023524649196234  0.47861077596931517  1.0000
  C   C20       1.0  0.43860702384274924  0.0868605916031768  0.48469330646959463  1.0000
  C   C21       1.0  0.5605964579908971  0.8129175581107404  0.46745719656331636  1.0000
  C   C22       1.0  0.44440231726304086  0.17648640985415653  0.4780873223920637  1.0000
  C   C23       1.0  0.4847911716967844  0.7635269872231943  0.5021795928429853  1.0000
  C   C24       1.0  0.509936260654122  0.22675244946863424  0.514897636411483  1.0000
  C   C25       1.0  0.4116359437034518  0.8087713607657036  0.5495999776764364  1.0000
  C   C26       1.0  0.5702648975062345  0.18247795249958898  0.5607541413785457  1.0000
  C   C27       1.0  0.41755768347911726  0.8987086645312417  0.5655436609622981  1.0000
  C   C28       1.0  0.562850416593342  0.09232488957002971  0.5716277424208229  1.0000
  C   C29       1.0  0.49446015559917106  0.9463857914384448  0.5293014352104493  1.0000
  C   C30       1.0  0.4977632898603162  0.0434681935247951  0.5321427196773953  1.0000
  C   C31       1.0  0.10888502458562502  0.45671989422167053  0.44192449490725494  1.0000
  C   C32       1.0  0.8911797195748504  0.4621408334630673  0.5527139881303071  1.0000
  C   C33       1.0  0.20780569212996616  0.4498363734407533  0.4439659322852095  1.0000
  C   C34       1.0  0.7919906753408908  0.459499168088854  0.551773967394297  1.0000
  C   C35       1.0  0.20093090420696316  0.5421924568075909  0.5540207449932666  1.0000
  C   C36       1.0  0.7984308280287208  0.5512643050243896  0.4460495451551409  1.0000
  C   C37       1.0  0.1018505195584112  0.552235540591532  0.5545556550935802  1.0000
  C   C38       1.0  0.8978422078248585  0.5571257962939528  0.44456472681238784  1.0000
  C   C39       1.0  0.053309263571776504  0.5103845828438905  0.49750537607038586  1.0000
  C   C40       1.0  0.9468309374933241  0.5129089042224919  0.49883580637914793  1.0000
  N   N1        1.0  0.25262218843275963  0.4921872065197874  0.49891266675227547  1.0000
  N   N2        1.0  0.7469076984344838  0.5034834135442522  0.49923117151618607  1.0000
  N   N3        1.0  0.050395244707935695  0.6101288712370805  0.6159531525653039  1.0000
  N   N4        1.0  0.9490202393782995  0.6129315040210984  0.38543555032063653  1.0000
  N   N5        1.0  0.6330924202413399  0.6439502097251122  0.868394433083367  1.0000
  N   N6        1.0  0.37451472133099634  0.4553730102646583  0.10262634175093412  1.0000
  N   N7        1.0  0.638863641466223  0.7692134753256212  0.41443921449020144  1.0000
  N   N8        1.0  0.3802432506978022  0.21850591538577652  0.4264340683333928  1.0000
  N   N9        1.0  0.32868485520476304  0.7566784772226642  0.5838330312619817  1.0000
  N   N10       1.0  0.643760949815217  0.23589825859505714  0.596021704919572  1.0000
  N   N11       1.0  0.3469509795049888  0.9435474958643583  0.6242344189711986  1.0000
  N   N12       1.0  0.6170868273926687  0.04920895688614021  0.6293998665498322  1.0000
  O   O1        1.0  0.5706117738937879  0.6328868234622504  0.5061551728545979  1.0000
  O   O2        1.0  0.42589178761645036  0.35953183974366715  0.518786848683476  1.0000
  O   O3        1.0  0.4138911412367534  0.6259349692446818  0.4813373688933709  1.0000
  O   O4        1.0  0.5897225492483713  0.3611623336082487  0.4936280085055813  1.0000
  O   O5        1.0  0.5972836356271856  0.5054790632794167  0.38137434437642537  1.0000
  O   O6        1.0  0.40071576649386736  0.5191843445360647  0.6145193413063481  1.0000
  O   O7        1.0  0.4401176065933399  0.4697141148203627  0.38313826794131245  1.0000
  O   O8        1.0  0.5620976594880532  0.5000047768872591  0.6144476751120322  1.0000
  O   O9        1.0  0.9725206390893889  0.6423870799326538  0.6016786336811677  1.0000
  O   O10       1.0  0.0887653430797926  0.6219843984089549  0.6766392165215223  1.0000
  O   O11       1.0  0.0299559122214603  0.6381712197146713  0.3981423725852196  1.0000
  O   O12       1.0  0.9073971190608674  0.630444860367625  0.3278721281751872  1.0000
  O   O13       1.0  0.7137335250169344  0.6163920778561333  0.8395622441844921  1.0000
  O   O14       1.0  0.6182312876355527  0.7062877241173312  0.9158302571229058  1.0000
  O   O15       1.0  0.395630894863686  0.4062010342148028  0.0447353881328567  1.0000
  O   O16       1.0  0.29135174265375247  0.4741974671535942  0.1323300663510452  1.0000
  O   O17       1.0  0.7222090053511748  0.7825240946356331  0.42894190353547407  1.0000
  O   O18       1.0  0.6143863557371531  0.7248582329948121  0.35912224225405964  1.0000
  O   O19       1.0  0.4196891472516385  0.25843489881096104  0.3705552277632834  1.0000
  O   O20       1.0  0.2927417387635104  0.20783265103553816  0.4423458295509519  1.0000
  O   O21       1.0  0.2590176524654169  0.7531807574684493  0.5459692030663418  1.0000
  O   O22       1.0  0.33959667583214787  0.7184223209400287  0.6444527134375378  1.0000
  O   O23       1.0  0.7261634285398769  0.23063333969965777  0.5618770587114028  1.0000
  O   O24       1.0  0.6147015143767691  0.2840269288620476  0.6524864395934742  1.0000
  O   O25       1.0  0.369529171046743  0.016087813555820705  0.6495699824455983  1.0000
  O   O26       1.0  0.27114494510320947  0.905902848255856  0.6449134775379906  1.0000
  O   O27       1.0  0.6070694651631997  0.9695200233370613  0.6364641545681523  1.0000
  O   O28       1.0  0.6671018168056831  0.0955364346699739  0.6680587701794352  1.0000
