data_image0
_chemical_formula_structural       Er2H20C32N10O16
_chemical_formula_sum              "Er2 H20 C32 N10 O16"
_cell_length_a       9.437903087171792
_cell_length_b       10.108802260963431
_cell_length_c       11.611974287977754
_cell_angle_alpha    67.20602652898751
_cell_angle_beta     66.02037977673325
_cell_angle_gamma    62.17041139909849

_space_group_name_H-M_alt    "P 1"
_space_group_IT_number       1

loop_
  _space_group_symop_operation_xyz
  'x, y, z'

loop_
  _atom_site_type_symbol
  _atom_site_label
  _atom_site_symmetry_multiplicity
  _atom_site_fract_x
  _atom_site_fract_y
  _atom_site_fract_z
  _atom_site_occupancy
  Er  Er1       1.0  0.659915054210728  0.24999077286205565  0.7499877136785854  1.0000
  Er  Er2       1.0  0.3400860088008458  0.7500095182029441  0.2500107579394637  1.0000
  H   H1        1.0  0.15619595508229597  0.5871194549820943  0.9517511680165996  1.0000
  H   H2        1.0  0.6949256238797618  0.9128870772237718  0.5482752656741636  1.0000
  H   H3        1.0  0.8438073551525419  0.4128808305850385  0.04824969813030587  1.0000
  H   H4        1.0  0.30507012536202893  0.08711205500332402  0.4517257386326533  1.0000
  H   H5        1.0  0.8759559493151198  0.626307024899653  0.9379352895269903  1.0000
  H   H6        1.0  0.43998014117816797  0.8737250772767383  0.5621958955296904  1.0000
  H   H7        1.0  0.12404718352247807  0.3736898014128799  0.062065518364867935  1.0000
  H   H8        1.0  0.5600156080636226  0.1262740549503576  0.437805108777127  1.0000
  H   H9        1.0  0.2279926969779781  0.8136027603400607  0.8925022706522581  1.0000
  H   H10       1.0  0.934009029141123  0.6863570791070616  0.6073900971299366  1.0000
  H   H11       1.0  0.7720069632270776  0.18639867960468595  0.10749807129291612  1.0000
  H   H12       1.0  0.06598993768035646  0.31364436456408384  0.3926086167600218  1.0000
  H   H13       1.0  0.6889906232150553  0.8947731756129969  0.8591884587032865  1.0000
  H   H14       1.0  0.4427645703714448  0.6052339905632849  0.6408673719955686  1.0000
  H   H15       1.0  0.3110112738885533  0.1052248052606259  0.1408117298788909  1.0000
  H   H16       1.0  0.5572338174108467  0.39476283822297387  0.35913238129380437  1.0000
  H   H17       1.0  0.27615160983219034  0.008031369045596601  0.8409166380319562  1.0000
  H   H18       1.0  0.12487389686280187  0.49222958252260435  0.6589595227715535  1.0000
  H   H19       1.0  0.7238484256507576  0.9919689143831291  0.15908518480448916  1.0000
  H   H20       1.0  0.8751261386201463  0.5077707009061215  0.341042300064892  1.0000
  C   C1        1.0  0.06720694160468113  0.701304275013655  0.9206569347769146  1.0000
  C   C2        1.0  0.688991483531723  0.7987174750674201  0.5793444051965223  1.0000
  C   C3        1.0  0.9327957587828309  0.2986960171205483  0.07934105849636101  1.0000
  C   C4        1.0  0.31100779107072896  0.20128166782008353  0.42065190796554214  1.0000
  C   C5        1.0  0.2157311383245072  0.25015850041469895  0.749944625877042  1.0000
  C   C6        1.0  0.7842693559725903  0.7498406293386707  0.25005743303226785  1.0000
  C   C7        1.0  0.9148041665179463  0.722375318963181  0.9119905733603063  1.0000
  C   C8        1.0  0.5489648836773213  0.7776387051545585  0.5880853142926411  1.0000
  C   C9        1.0  0.08520031195396878  0.2776226677752548  0.08800703047710806  1.0000
  C   C10       1.0  0.45103554312286326  0.2223592803311973  0.4119128629975108  1.0000
  C   C11       1.0  0.10953020147660192  0.829333850365096  0.885104215128173  1.0000
  C   C12       1.0  0.8238424988829111  0.6706544881603521  0.6148128519062084  1.0000
  C   C13       1.0  0.8904700846151243  0.17066644158563096  0.11489387325305951  1.0000
  C   C14       1.0  0.1761595652932116  0.3293434983946071  0.38518484703916295  1.0000
  C   C15       1.0  0.8098594973005644  0.8716653355693323  0.8676596937171295  1.0000
  C   C16       1.0  0.5489946750499968  0.6283548659724545  0.6323712461123775  1.0000
  C   C17       1.0  0.19014371907329772  0.1283314935838717  0.13233986935632197  1.0000
  C   C18       1.0  0.45100583528644483  0.3716431223539658  0.3676256863593609  1.0000
  C   C19       1.0  0.18490510266014556  0.11361398390991441  0.8001756785102927  1.0000
  C   C20       1.0  0.09853325744410321  0.38661513752838766  0.6997128677504846  1.0000
  C   C21       1.0  0.8150940723666978  0.8863862975638738  0.1998270059077427  1.0000
  C   C22       1.0  0.9014664599331466  0.6133839931107161  0.30028880792200846  1.0000
  C   C23       1.0  0.037239801052877046  0.11674276746331465  0.7958763936900795  1.0000
  C   C24       1.0  0.9497476302966916  0.38332308641494  0.7040538896858805  1.0000
  C   C25       1.0  0.9627607767804774  0.8832563651307199  0.20412442040082368  1.0000
  C   C26       1.0  0.05024990735421401  0.616677193989645  0.29594927307692115  1.0000
  C   C27       1.0  0.9986923696169399  0.9757119995287269  0.8403540605479377  1.0000
  C   C28       1.0  0.8146058681711495  0.5242905364330142  0.6595894003747629  1.0000
  C   C29       1.0  0.0013086670305711258  0.0242859793899584  0.15964698961582965  1.0000
  C   C30       1.0  0.18539393274236446  0.4757085970467544  0.3404110304793234  1.0000
  C   C31       1.0  0.37437679253864786  0.25019548087203  0.7499510995312163  1.0000
  C   C32       1.0  0.6256237852947066  0.7498036517220116  0.2500497145596937  1.0000
  N   N1        1.0  0.9219663752094079  0.25000677002118726  0.7499673936001656  1.0000
  N   N2        1.0  0.0780333421678491  0.7499923606179167  0.25003428207232753  1.0000
  N   N3        1.0  0.850628039011717  0.9952888326709801  0.8321026411445799  1.0000
  N   N4        1.0  0.6778642412740009  0.5047187475395276  0.6678751936998351  1.0000
  N   N5        1.0  0.14937004098959514  0.0047102968989137005  0.1678995128726868  1.0000
  N   N6        1.0  0.3221364200956173  0.4952803878951786  0.33212437557266844  1.0000
  N   N7        1.0  0.48036358623942  0.33944998818796535  0.9902687954419205  1.0000
  N   N8        1.0  0.8101194038753475  0.16049391723361595  0.5097049010352278  1.0000
  N   N9        1.0  0.5196315634797628  0.6605526041794575  0.009731883883127098  1.0000
  N   N10       1.0  0.18988301509524774  0.8395109878305363  0.4902929144202232  1.0000
  O   O1        1.0  0.42474703497698835  0.4101812216997446  0.8898530965653817  1.0000
  O   O2        1.0  0.724769059065707  0.08977738689635122  0.6100969617606252  1.0000
  O   O3        1.0  0.5752532511147379  0.5898190702509825  0.11014499181585079  1.0000
  O   O4        1.0  0.27523453846668366  0.9102286729123678  0.3899001392771949  1.0000
  O   O5        1.0  0.4020276720024116  0.3747680182139206  0.09520332596378714  1.0000
  O   O6        1.0  0.872019695011943  0.12521970124500115  0.4047555251776416  1.0000
  O   O7        1.0  0.5979637705147947  0.6252380378367521  0.904795495432225  1.0000
  O   O8        1.0  0.1279815453968566  0.8747840490745916  0.5952430046954473  1.0000
  O   O9        1.0  0.6233472209267603  0.22774999388958866  0.9741323994200997  1.0000
  O   O10       1.0  0.8253326422658914  0.2721316747065075  0.5258715804904027  1.0000
  O   O11       1.0  0.3766489974538914  0.7722514382354149  0.0258713888514349  1.0000
  O   O12       1.0  0.17466822286502276  0.727873232129113  0.47412546849142245  1.0000
  O   O13       1.0  0.45197764640384736  0.14367210410670592  0.8316050719481537  1.0000
  O   O14       1.0  0.42716142858095196  0.3566789522122492  0.6683123867872354  1.0000
  O   O15       1.0  0.5480234737799208  0.8563258776526512  0.16839473339720706  1.0000
  O   O16       1.0  0.5728399261722428  0.6433201794960655  0.3316888105404913  1.0000
