data_image0
_chemical_formula_structural       Cd4H16C24N20Cl4
_chemical_formula_sum              "Cd4 H16 C24 N20 Cl4"
_cell_length_a       8.045079274153581
_cell_length_b       9.323645824420245
_cell_length_c       10.637465564141996
_cell_angle_alpha    81.58390061478087
_cell_angle_beta     88.25728803854408
_cell_angle_gamma    89.42516937268495

_space_group_name_H-M_alt    "P 1"
_space_group_IT_number       1

loop_
  _space_group_symop_operation_xyz
  'x, y, z'

loop_
  _atom_site_type_symbol
  _atom_site_label
  _atom_site_symmetry_multiplicity
  _atom_site_fract_x
  _atom_site_fract_y
  _atom_site_fract_z
  _atom_site_occupancy
  Cd  Cd1       1.0  0.21248127701700525  0.7591674623644523  0.21228695609178058  1.0000
  Cd  Cd2       1.0  0.7875178368228856  0.24083097689201344  0.7877130994454049  1.0000
  Cd  Cd3       1.0  0.999998754148251  0.49999955848637273  0.4999995508492816  1.0000
  Cd  Cd4       1.0  0.4999992564143199  0.49999943566435684  0.9999997188518177  1.0000
  H   H1        1.0  0.5456971089423206  0.3687087961334469  0.5652019343360735  1.0000
  H   H2        1.0  0.4543032286119412  0.6312918109895661  0.4347996978155777  1.0000
  H   H3        1.0  0.015494617781577295  0.9948691437678291  0.3331443925261155  1.0000
  H   H4        1.0  0.9845069682194845  0.005131464767401901  0.6668553324342738  1.0000
  H   H5        1.0  0.2476648927132317  0.036201970334055  0.977089673948818  1.0000
  H   H6        1.0  0.7523342185222005  0.9637975541643659  0.022908362721715016  1.0000
  H   H7        1.0  0.21732481083988378  0.034788134597519595  0.481128115663047  1.0000
  H   H8        1.0  0.7826742754991256  0.9652146421009108  0.5188704457541746  1.0000
  H   H9        1.0  0.9980830329501839  0.40935441335587797  0.09438016241139739  1.0000
  H   H10       1.0  0.001916078285248101  0.5906451111425426  0.9056178742591355  1.0000
  H   H11       1.0  0.5163238591673363  0.9817464452075699  0.8135775067462558  1.0000
  H   H12       1.0  0.48367524718722155  0.0182530782834576  0.1864224103090351  1.0000
  H   H13       1.0  0.9244654888807204  0.2547966100690289  0.30164160594921435  1.0000
  H   H14       1.0  0.07553609956077169  0.7452039989698988  0.698357178818796  1.0000
  H   H15       1.0  0.3127068900014294  0.8814922974588555  0.6808499648429701  1.0000
  H   H16       1.0  0.6872934623594842  0.118507226940693  0.3191489852134453  1.0000
  C   C1        1.0  0.33651685703422624  0.31262230324511364  0.3908032083583776  1.0000
  C   C2        1.0  0.6634834679898205  0.6873804728507339  0.6091972066370985  1.0000
  C   C3        1.0  0.37141097878537715  0.215835382375289  0.5094150163691181  1.0000
  C   C4        1.0  0.6285881051131951  0.7841673938194376  0.4905844852404826  1.0000
  C   C5        1.0  0.487268227299097  0.2629335849700071  0.5895828330697555  1.0000
  C   C6        1.0  0.512732112695602  0.7370670226567099  0.4104178588895167  1.0000
  C   C7        1.0  0.04671229413523289  0.06708729376993008  0.24559710398263226  1.0000
  C   C8        1.0  0.9532892943062662  0.9329133152689976  0.7544016807853778  1.0000
  C   C9        1.0  0.17629250363037835  0.0894014660915587  0.04614711711443679  1.0000
  C   C10       1.0  0.8237090997817729  0.9105969744782456  0.9538519446173693  1.0000
  C   C11       1.0  0.30518704396853014  0.0768995197377365  0.5422161736853184  1.0000
  C   C12       1.0  0.6948132909812798  0.9231021726272461  0.4577834395996732  1.0000
  C   C13       1.0  0.1641649034575322  0.324240912083674  0.8963147296699103  1.0000
  C   C14       1.0  0.835834217867685  0.6757564429382228  0.10368546434917648  1.0000
  C   C15       1.0  0.12908287054039394  0.23511321722546089  0.019965370046087103  1.0000
  C   C16       1.0  0.8709149872033561  0.7648873905990073  0.9800334951414271  1.0000
  C   C17       1.0  0.03745483760216219  0.29639624298395256  0.11278475990671667  1.0000
  C   C18       1.0  0.9625442711928327  0.7036032810107784  0.8872142169561955  1.0000
  C   C19       1.0  0.4719445178469215  0.04731790591019801  0.7276849500610111  1.0000
  C   C20       1.0  0.5280558296331106  0.9526816174819573  0.2723158803801553  1.0000
  C   C21       1.0  0.9961113927130896  0.211317798768242  0.2273215199091254  1.0000
  C   C22       1.0  0.0038889521624909944  0.7886828098658684  0.7726772916653886  1.0000
  C   C23       1.0  0.3562472533344874  0.9919102453935551  0.6531526865389806  1.0000
  C   C24       1.0  0.6437530791748927  0.008091446467723497  0.34684786693838987  1.0000
  N   N1        1.0  0.24726116651448388  0.4368144298665584  0.3846717898754335  1.0000
  N   N2        1.0  0.752737919988533  0.5631872610862061  0.6153297306008199  1.0000
  N   N3        1.0  0.268450259957973  0.5027622034360988  0.2647789502486972  1.0000
  N   N4        1.0  0.7315476052711105  0.49723732015380767  0.7352200534207113  1.0000
  N   N5        1.0  0.3651981262337216  0.4207909930159913  0.20166678462199875  1.0000
  N   N6        1.0  0.6347997365549245  0.5792085300702111  0.7983331592397888  1.0000
  N   N7        1.0  0.409640408456056  0.30050695034714897  0.27735439541680756  1.0000
  N   N8        1.0  0.5903599390239833  0.6994925730449993  0.722646435024366  1.0000
  N   N9        1.0  0.13528229644901302  0.007024996362261502  0.1571358466739738  1.0000
  N   N10       1.0  0.8647192919924789  0.9929756126766734  0.8428629380940437  1.0000
  N   N11       1.0  0.5372293288336891  0.1804092639561574  0.6959531086413192  1.0000
  N   N12       1.0  0.4627697750804316  0.8195902590311733  0.30404774860635086  1.0000
  N   N13       1.0  0.0642997131227432  0.3289277909103987  0.7970784723089749  1.0000
  N   N14       1.0  0.935698149665896  0.6710717321758111  0.20292147155281984  1.0000
  N   N15       1.0  0.2637663242283068  0.4861896786359381  0.748473570806638  1.0000
  N   N16       1.0  0.73623403561794  0.5138087615290486  0.2515255177316646  1.0000
  N   N17       1.0  0.2877573517991863  0.4212752215967868  0.8683348755630573  1.0000
  N   N18       1.0  0.7122405233556603  0.5787232182622546  0.1316633263958735  1.0000
  N   N19       1.0  0.13030544429058466  0.43106103797656914  0.7066967429022738  1.0000
  N   N20       1.0  0.8696936645044104  0.5689384860181548  0.29330223396063804  1.0000
  Cl  Cl1       1.0  0.10625315676502817  0.7628093078537505  0.46178557752070043  1.0000
  Cl  Cl2       1.0  0.8937459544704109  0.2371902166446773  0.5382124591498324  1.0000
  Cl  Cl3       1.0  0.3503500358531467  0.7549437534276394  0.9900670990726891  1.0000
  Cl  Cl4       1.0  0.6496490779867443  0.24505468582881917  0.009932956464496108  1.0000
