data_image0
_chemical_formula_structural       Cu6Si2H42C56I6N6
_chemical_formula_sum              "Cu6 Si2 H42 C56 I6 N6"
_cell_length_a       12.436732890072873
_cell_length_b       12.490854629796111
_cell_length_c       12.6407
_cell_angle_alpha    61.930311120642344
_cell_angle_beta     61.79726411895956
_cell_angle_gamma    62.1076574490183

_space_group_name_H-M_alt    "P 1"
_space_group_IT_number       1

loop_
  _space_group_symop_operation_xyz
  'x, y, z'

loop_
  _atom_site_type_symbol
  _atom_site_label
  _atom_site_symmetry_multiplicity
  _atom_site_fract_x
  _atom_site_fract_y
  _atom_site_fract_z
  _atom_site_occupancy
  Cu  Cu1       1.0  0.8452868244089016  0.010693946122579201  0.2341977584637507  1.0000
  Cu  Cu2       1.0  0.2299437991442659  0.8431627668847241  0.013583452972731848  1.0000
  Cu  Cu3       1.0  0.00876502625010289  0.2302172144219981  0.8454950478727525  1.0000
  Cu  Cu4       1.0  0.15471728206374277  0.9893162324411264  0.7657914857665347  1.0000
  Cu  Cu5       1.0  0.7700490493842053  0.1568397622182331  0.9864256579168685  1.0000
  Cu  Cu6       1.0  0.9912378546677656  0.7697795775853962  0.1545049459871923  1.0000
  Si  Si1       1.0  0.3420217703538313  0.3435822226742644  0.345782669419691  1.0000
  Si  Si2       1.0  0.6579759416591741  0.6564164816983223  0.6542227941015639  1.0000
  H   H1        1.0  0.5867819674799718  0.1427924837412249  0.258334438569733  1.0000
  H   H2        1.0  0.2550847602225517  0.5847831065445916  0.1442663281724563  1.0000
  H   H3        1.0  0.1400772272227329  0.255245293799554  0.5886594519404583  1.0000
  H   H4        1.0  0.41322517189195196  0.8572052644487655  0.7416623395597243  1.0000
  H   H5        1.0  0.7449108235317894  0.41521655401059127  0.8557349337531547  1.0000
  H   H6        1.0  0.8599168352401418  0.7447534105730327  0.4113484995973594  1.0000
  H   H7        1.0  0.8949836913939038  0.9521905308941356  0.45218881783331705  1.0000
  H   H8        1.0  0.4528937272519472  0.8933518350202903  0.9519897552385361  1.0000
  H   H9        1.0  0.9527986509163923  0.45083818033843676  0.8924805654983179  1.0000
  H   H10       1.0  0.1050301401110758  0.0478091296610401  0.5478102882500481  1.0000
  H   H11       1.0  0.5471030723735311  0.1066468693522893  0.04801217703585078  1.0000
  H   H12       1.0  0.04719420148553866  0.5491700858600836  0.10751954726549683  1.0000
  H   H13       1.0  0.39172399993769597  0.2686863525124608  0.5871961907932572  1.0000
  H   H14       1.0  0.5878072667306923  0.39426468102793427  0.2688776194559851  1.0000
  H   H15       1.0  0.26708627174563293  0.5883362810609967  0.3939366123894177  1.0000
  H   H16       1.0  0.6082819274365503  0.7313180889556818  0.412798038720517  1.0000
  H   H17       1.0  0.41219287702458  0.6057321109794672  0.7311181094268023  1.0000
  H   H18       1.0  0.7329090085251053  0.4116643356767753  0.6060683015297172  1.0000
  H   H19       1.0  0.9044071102565494  0.9508040661339692  0.6450406942211944  1.0000
  H   H20       1.0  0.6481485498228636  0.9049704097105221  0.9500523096849065  1.0000
  H   H21       1.0  0.9533967883633705  0.6453094646954725  0.9013026503182503  1.0000
  H   H22       1.0  0.0955954729879025  0.04920228769936591  0.35495736539790107  1.0000
  H   H23       1.0  0.3518506834816009  0.09502925084466092  0.04994646422414209  1.0000
  H   H24       1.0  0.046606094491231397  0.35469019585971046  0.09869917324223818  1.0000
  H   H25       1.0  0.506972843328576  0.1844571840582319  0.7372117373487016  1.0000
  H   H26       1.0  0.7408055616405347  0.5100756043536521  0.18331122383857978  1.0000
  H   H27       1.0  0.18510572938021136  0.7395565581788759  0.5077453965038572  1.0000
  H   H28       1.0  0.49303065424012943  0.8155520383228776  0.26277507021377755  1.0000
  H   H29       1.0  0.2591936697272032  0.4899211876537423  0.8166809737973396  1.0000
  H   H30       1.0  0.814900497604185  0.2604411900111145  0.49225892571475066  1.0000
  H   H31       1.0  0.21861285025652683  0.3607131900144083  0.22940539888781325  1.0000
  H   H32       1.0  0.2241681219774065  0.21934159360670694  0.3622352217873655  1.0000
  H   H33       1.0  0.3601558743884894  0.2266085813151832  0.22290343550536557  1.0000
  H   H34       1.0  0.7813854687236841  0.6392836019929931  0.7705982983144108  1.0000
  H   H35       1.0  0.7758295900355986  0.7806571107658798  0.6377702417338896  1.0000
  H   H36       1.0  0.6398430554323795  0.7733920354225888  0.7771013636834923  1.0000
  H   H37       1.0  0.7122882443504963  0.0658723750295778  0.7871140363925092  1.0000
  H   H38       1.0  0.7920681381769652  0.7151557345824743  0.06432991119113754  1.0000
  H   H39       1.0  0.06885300432018229  0.7891728729411014  0.7107955625963881  1.0000
  H   H40       1.0  0.2877106874070989  0.934131110255976  0.21288151716087347  1.0000
  H   H41       1.0  0.2079301808032383  0.2848410574249272  0.9356706216293633  1.0000
  H   H42       1.0  0.9311541331150224  0.21082200670110754  0.28921283445482987  1.0000
  C   C1        1.0  0.5835823586219391  0.1434417317220209  0.34600045185301553  1.0000
  C   C2        1.0  0.3439553508639435  0.5826661182831998  0.14446368652460242  1.0000
  C   C3        1.0  0.14119334049974694  0.3439245360426355  0.5851965748989728  1.0000
  C   C4        1.0  0.4164238702991836  0.8565588850157512  0.6539930425392698  1.0000
  C   C5        1.0  0.6560405363740003  0.41733258608938684  0.8555402521709324  1.0000
  C   C6        1.0  0.8588074102227237  0.6560703435995805  0.41481162738251226  1.0000
  C   C7        1.0  0.6960666151538747  0.0708464368795134  0.48329761015055794  1.0000
  C   C8        1.0  0.4839690782301602  0.6956610838718831  0.07052621661090078  1.0000
  C   C9        1.0  0.07026371257148159  0.4826455943019283  0.695712220592938  1.0000
  C   C10       1.0  0.30394021879772026  0.929149398945299  0.5166962436992931  1.0000
  C   C11       1.0  0.5160274159749818  0.3043357081355111  0.9294751646701657  1.0000
  C   C12       1.0  0.9297257898904617  0.5173559786184398  0.30429335303341526  1.0000
  C   C13       1.0  0.47193928815583047  0.218687564712944  0.4167184630098363  1.0000
  C   C14       1.0  0.4148079945757246  0.4727156380713282  0.22021486835040358  1.0000
  C   C15       1.0  0.21657633292259953  0.4155674730222998  0.47420932598487303  1.0000
  C   C16       1.0  0.5280651159902305  0.7813130520248279  0.5832782531293078  1.0000
  C   C17       1.0  0.5851869802746847  0.5272830663012585  0.7797894945754108  1.0000
  C   C18       1.0  0.7834262425749401  0.5844274066199162  0.5258004011223393  1.0000
  C   C19       1.0  0.810845352622266  0.002948867117496  0.5147741439748686  1.0000
  C   C20       1.0  0.5162315063557941  0.8102261012786373  0.0024255634652303962  1.0000
  C   C21       1.0  0.003503791340563078  0.514300019050502  0.8090447845914072  1.0000
  C   C22       1.0  0.18916421849192486  0.9970469687073164  0.4852231837567089  1.0000
  C   C23       1.0  0.483764987849348  0.18977069072875713  0.9975734445295502  1.0000
  C   C24       1.0  0.9964860165417093  0.4857034662350515  0.19095501126482603  1.0000
  C   C25       1.0  0.5854966129140564  0.1385833679658717  0.5645131952738751  1.0000
  C   C26       1.0  0.5660139131773505  0.5865128408557254  0.13804625735728854  1.0000
  C   C27       1.0  0.13790352943825465  0.5650302865338332  0.5859136570246974  1.0000
  C   C28       1.0  0.4145105264578675  0.861414380224126  0.4354812095692963  1.0000
  C   C29       1.0  0.4339862305779221  0.41348395115166886  0.8619502626209228  1.0000
  C   C30       1.0  0.8620920562528127  0.434972242569124  0.41408706131517886  1.0000
  C   C31       1.0  0.4741165141850274  0.2132306306534346  0.5277990613963867  1.0000
  C   C32       1.0  0.5278724609028628  0.47569510303180357  0.21364486173477806  1.0000
  C   C33       1.0  0.21171713105501755  0.5279887290550533  0.4758020260300881  1.0000
  C   C34       1.0  0.5258891058321639  0.7867690299017482  0.4721943696143783  1.0000
  C   C35       1.0  0.47212464220621075  0.5243026451581869  0.7863518363552302  1.0000
  C   C36       1.0  0.7882778437953916  0.4720099753175334  0.5242031279911572  1.0000
  C   C37       1.0  0.8152384858034195  0.0020290194628174  0.6223287672245308  1.0000
  C   C38       1.0  0.6250989393029869  0.81583315600529  0.0012551329888807663  1.0000
  C   C39       1.0  0.003768289796873575  0.622720607113223  0.8130929946152534  1.0000
  C   C40       1.0  0.18476379008396984  0.9979725534575509  0.37766928498697894  1.0000
  C   C41       1.0  0.3749005974850803  0.1841655483672966  0.9987423622129301  1.0000
  C   C42       1.0  0.99623124892792  0.3772809658071452  0.18691186795511786  1.0000
  C   C43       1.0  0.5924986629357463  0.1337527335049202  0.6755456128738617  1.0000
  C   C44       1.0  0.6786001036933342  0.5946241377940211  0.1327031347307823  1.0000
  C   C45       1.0  0.13435240852938793  0.6770327345907603  0.5924936827924655  1.0000
  C   C46       1.0  0.4075060505041036  0.8662555326936003  0.32444186503738587  1.0000
  C   C47       1.0  0.32140004393539096  0.4053783913089362  0.867285969312512  1.0000
  C   C48       1.0  0.8656450000000148  0.3229669259644226  0.40751464162687534  1.0000
  C   C49       1.0  0.2805274475618019  0.2818529868211144  0.28476609766307354  1.0000
  C   C50       1.0  0.7194702644512034  0.7181457175514723  0.7152401569536053  1.0000
  C   C51       1.0  0.7055661822465565  0.0669289567950884  0.7037135065966424  1.0000
  C   C52       1.0  0.7074688520626395  0.7075320907667263  0.0658568270356881  1.0000
  C   C53       1.0  0.06889628442064581  0.7050766138673339  0.7044013208612299  1.0000
  C   C54       1.0  0.2944345762228266  0.9330773970382468  0.29628144600586365  1.0000
  C   C55       1.0  0.2925276440792288  0.2924675697884567  0.9341400551824892  1.0000
  C   C56       1.0  0.9311081158519556  0.2949182657748821  0.29559806464025223  1.0000
  I   I1        1.0  0.0711320765980402  0.8638421278283135  0.24515642557515344  1.0000
  I   I2        1.0  0.24492317227234384  0.0671746957215404  0.8623407997808175  1.0000
  I   I3        1.0  0.8645128445437392  0.2447617078474806  0.06897692503584113  1.0000
  I   I4        1.0  0.9288732379988217  0.1361556203616843  0.7548443653965934  1.0000
  I   I5        1.0  0.7550766660625995  0.9328201839206686  0.1376630801583758  1.0000
  I   I6        1.0  0.1354933921242959  0.7552503830814103  0.931010439536337  1.0000
  N   N1        1.0  0.6920327228999524  0.0732129887977351  0.3749570760950008  1.0000
  N   N2        1.0  0.37402786645022695  0.6906545118137828  0.0734830832348763  1.0000
  N   N3        1.0  0.0716365056419193  0.3731167906136648  0.6924242810106661  1.0000
  N   N4        1.0  0.3079741149251021  0.9267885841226331  0.625035690583374  1.0000
  N   N5        1.0  0.6259728862089701  0.3093432363762076  0.9265158734111409  1.0000
  N   N6        1.0  0.9283575587576819  0.6268847823066963  0.30757996255969294  1.0000
