data_image0
_chemical_formula_structural       Bi8H16C64N8O48
_chemical_formula_sum              "Bi8 H16 C64 N8 O48"
_cell_length_a       10.070208815065532
_cell_length_b       12.272066922045052
_cell_length_c       13.440538876090848
_cell_angle_alpha    90.00022065629484
_cell_angle_beta     89.99964366549058
_cell_angle_gamma    89.9997838117196

_space_group_name_H-M_alt    "P 1"
_space_group_IT_number       1

loop_
  _space_group_symop_operation_xyz
  'x, y, z'

loop_
  _atom_site_type_symbol
  _atom_site_label
  _atom_site_symmetry_multiplicity
  _atom_site_fract_x
  _atom_site_fract_y
  _atom_site_fract_z
  _atom_site_occupancy
  Bi  Bi1       1.0  0.21857846620285673  0.21089607554960568  0.5762193227867201  1.0000
  Bi  Bi2       1.0  0.7185734137587404  0.28910372807524  0.9237906790253305  1.0000
  Bi  Bi3       1.0  0.7814251550868576  0.71089810450313  0.9237801171076752  1.0000
  Bi  Bi4       1.0  0.2814209078532031  0.7891090905455511  0.5762157327972659  1.0000
  Bi  Bi5       1.0  0.781425080170969  0.7891031126974255  0.4237876533376337  1.0000
  Bi  Bi6       1.0  0.2814241744903683  0.7108913858704328  0.07620811290994568  1.0000
  Bi  Bi7       1.0  0.2185754122413499  0.289101898586793  0.0762171867937624  1.0000
  Bi  Bi8       1.0  0.718576680368912  0.2108949868485013  0.42378454718938485  1.0000
  H   H1        1.0  0.6204708944050097  0.4947784974470792  0.6403748044601939  1.0000
  H   H2        1.0  0.12047055577188813  0.0052240521441007  0.8596244904433518  1.0000
  H   H3        1.0  0.3795274393580144  0.9947790467065759  0.859624892324895  1.0000
  H   H4        1.0  0.8795379906619161  0.5052164389058333  0.6403764563275869  1.0000
  H   H5        1.0  0.3795276868589498  0.5052223205076841  0.35962398748284835  1.0000
  H   H6        1.0  0.87953398363981  0.9947816549581602  0.1403765335479008  1.0000
  H   H7        1.0  0.6204681628218367  0.0052176969641593  0.1403761316712036  1.0000
  H   H8        1.0  0.12046853483111872  0.494777045315054  0.3596253116553214  1.0000
  H   H9        1.0  0.36889423857452647  0.43915472403990924  0.8955882692185495  1.0000
  H   H10       1.0  0.8688849725478532  0.06084217318295518  0.6044165738680006  1.0000
  H   H11       1.0  0.6311093180628974  0.9391550564955012  0.6044134634918522  1.0000
  H   H12       1.0  0.13111735797669874  0.5608436369170277  0.8955853130467587  1.0000
  H   H13       1.0  0.6311103008441634  0.5608452790548597  0.104414242798228  1.0000
  H   H14       1.0  0.13111758083093147  0.9391562001912913  0.395582962079338  1.0000
  H   H15       1.0  0.3688852910843537  0.0608490208984378  0.39558458444832206  1.0000
  H   H16       1.0  0.8688871814495441  0.43915310674310604  0.1044171989642706  1.0000
  C   C1        1.0  0.4892599671206668  0.34233061682786564  0.5215671024716855  1.0000
  C   C2        1.0  0.989257052386421  0.1576724294375751  0.9784319762651137  1.0000
  C   C3        1.0  0.5107351009386959  0.8423280033081042  0.9784305687864574  1.0000
  C   C4        1.0  0.0107448294652741  0.6576718747941185  0.5215695080287617  1.0000
  C   C5        1.0  0.5107296768906906  0.6576702011406184  0.4784316894920052  1.0000
  C   C6        1.0  0.0107355706997936  0.8423283885310368  0.021569047745053593  1.0000
  C   C7        1.0  0.4892684454750409  0.15766874034572706  0.021568223137926203  1.0000
  C   C8        1.0  0.9892616959989837  0.3423273134452031  0.4784359800531418  1.0000
  C   C9        1.0  0.4515770076666002  0.38895220681983733  0.6208229646959609  1.0000
  C   C10       1.0  0.9515741466419101  0.1110509552240018  0.8791777762130122  1.0000
  C   C11       1.0  0.548418837381199  0.8889498748552782  0.8791771029903827  1.0000
  C   C12       1.0  0.0484289442750239  0.6110482577513139  0.6208227996807734  1.0000
  C   C13       1.0  0.5484215735885839  0.6110510557124655  0.37917657126917687  1.0000
  C   C14       1.0  0.048426420681956  0.8889482330103887  0.1208210157225622  1.0000
  C   C15       1.0  0.45157378572002227  0.11104849853266066  0.1208216889621099  1.0000
  C   C16       1.0  0.9515755951574433  0.3889484859056935  0.3791782242946836  1.0000
  C   C17       1.0  0.5325451482254165  0.45964933291521953  0.6746369648119526  1.0000
  C   C18       1.0  0.0325409614633472  0.04035430167475341  0.8253605043622086  1.0000
  C   C19       1.0  0.4674543413552499  0.9596486530431604  0.825360376058228  1.0000
  C   C20       1.0  0.9674644431053494  0.5403473772845686  0.6746398222599409  1.0000
  C   C21       1.0  0.467454426074724  0.5403506701762311  0.3253603390917803  1.0000
  C   C22       1.0  0.9674605988703747  0.959651405428957  0.1746390316003499  1.0000
  C   C23       1.0  0.5325412608289427  0.040348905483107  0.1746391599037338  1.0000
  C   C24       1.0  0.032541089362730695  0.4596461069362761  0.325361201707473  1.0000
  C   C25       1.0  0.5027210767414942  0.4772057190700564  0.7747282896151404  1.0000
  C   C26       1.0  0.0027197950773541002  0.022795562580498092  0.7252745254925301  1.0000
  C   C27       1.0  0.4972773384378897  0.9772053413928103  0.7252743212820291  1.0000
  C   C28       1.0  0.9972856908334222  0.5227930418915107  0.7747279712828075  1.0000
  C   C29       1.0  0.4972794905680331  0.5227942840292527  0.22527347839302078  1.0000
  C   C30       1.0  0.997284744343787  0.9772060702284691  0.274726498491539  1.0000
  C   C31       1.0  0.5027172707082314  0.022793846855428495  0.2747267027206775  1.0000
  C   C32       1.0  0.0027198416127660998  0.4772045166288875  0.22527602876293423  1.0000
  C   C33       1.0  0.5949282749890302  0.5400761366701303  0.8409956196957465  1.0000
  C   C34       1.0  0.094923536386581  0.9599275570749126  0.6590033240772185  1.0000
  C   C35       1.0  0.40507315873984606  0.0400763275588574  0.6590047059673836  1.0000
  C   C36       1.0  0.9050809170400955  0.4599237179118276  0.8409969938280211  1.0000
  C   C37       1.0  0.4050732853629101  0.45992305156273255  0.1590031722375329  1.0000
  C   C38       1.0  0.905077030925405  0.0400740757385876  0.3409969558982411  1.0000
  C   C39       1.0  0.5949214503975001  0.9599253052669282  0.3409970620574184  1.0000
  C   C40       1.0  0.0949246154142145  0.5400730257467856  0.15900551818070602  1.0000
  C   C41       1.0  0.3908802348169189  0.4280406676108584  0.8169507267909281  1.0000
  C   C42       1.0  0.8908752242982133  0.07195779176309709  0.6830488065646703  1.0000
  C   C43       1.0  0.6091203942468368  0.9280413984118783  0.6830479906703885  1.0000
  C   C44       1.0  0.109127054725036  0.5719598071380432  0.8169516315065194  1.0000
  C   C45       1.0  0.6091213255369112  0.571957705763353  0.1830480651409232  1.0000
  C   C46       1.0  0.10912633605183689  0.9280422113284317  0.3169499853700515  1.0000
  C   C47       1.0  0.3908752079310318  0.07196023440611299  0.3169508012809672  1.0000
  C   C48       1.0  0.8908754986456273  0.4280393810979888  0.1830493924778338  1.0000
  C   C49       1.0  0.3093311837509845  0.36494860393520423  0.7563185624174621  1.0000
  C   C50       1.0  0.8093243803640819  0.13505499515187577  0.7436865559217196  1.0000
  C   C51       1.0  0.6906687446233661  0.8649468946788801  0.743683652683174  1.0000
  C   C52       1.0  0.190675620233705  0.6350556900396  0.7563141046174592  1.0000
  C   C53       1.0  0.6906703765716032  0.6350538437432575  0.2436854376460786  1.0000
  C   C54       1.0  0.1906761869641329  0.8649450079380473  0.2563107479797182  1.0000
  C   C55       1.0  0.30932586454200367  0.13505473813282257  0.256311419181543  1.0000
  C   C56       1.0  0.809325940097004  0.3649459427770694  0.2436884074090671  1.0000
  C   C57       1.0  0.1841242247981825  0.3097617540404299  0.7921342826907319  1.0000
  C   C58       1.0  0.6841204445564842  0.19023978513659046  0.7078669501242913  1.0000
  C   C59       1.0  0.8158759593068724  0.8097627688664628  0.7078632737322649  1.0000
  C   C60       1.0  0.31588128640531477  0.6902426905973442  0.7921286968581356  1.0000
  C   C61       1.0  0.8158773355437531  0.6902390639128908  0.20786599728099733  1.0000
  C   C62       1.0  0.3158840948497499  0.8097602179644453  0.2921385379636376  1.0000
  C   C63       1.0  0.18411765680552608  0.19023886395928002  0.2921377502770426  1.0000
  C   C64       1.0  0.684119280930247  0.3097622016351451  0.20786414294519767  1.0000
  N   N1        1.0  0.3414590609542287  0.3469986477166813  0.661080459626568  1.0000
  N   N2        1.0  0.8414573354897287  0.1530056675036917  0.8389200461294591  1.0000
  N   N3        1.0  0.6585399575889781  0.8469966229309805  0.8389164840640148  1.0000
  N   N4        1.0  0.1585435749604258  0.6530028010704  0.6610821657265263  1.0000
  N   N5        1.0  0.6585385272766615  0.6530029850998318  0.3389190763379872  1.0000
  N   N6        1.0  0.1585422388041806  0.8469943355908851  0.16107874580984569  1.0000
  N   N7        1.0  0.3414586236931001  0.1530017504415397  0.1610793318035633  1.0000
  N   N8        1.0  0.8414569923497622  0.3469955723131548  0.338920346296554  1.0000
  O   O1        1.0  0.4133015886405077  0.2694032499130613  0.4844064369908238  1.0000
  O   O2        1.0  0.9133041957375312  0.23060200069635073  0.01559365313814  1.0000
  O   O3        1.0  0.5866970090311271  0.7694000857437118  0.015591637524607897  1.0000
  O   O4        1.0  0.0866935886844402  0.730598270542245  0.4844080046635497  1.0000
  O   O5        1.0  0.5866940135304758  0.7306000126238174  0.5155930989811992  1.0000
  O   O6        1.0  0.0866943855352034  0.7693963726808661  0.9844043947827996  1.0000
  O   O7        1.0  0.41330554435321426  0.23059991734316299  0.9844056663722398  1.0000
  O   O8        1.0  0.9133049925765067  0.2693984731254774  0.5155937633434604  1.0000
  O   O9        1.0  0.5986798331577532  0.37255184661219687  0.4834903046071304  1.0000
  O   O10       1.0  0.0986778277411915  0.12744703690383827  0.0165104954003326  1.0000
  O   O11       1.0  0.4013153074892984  0.8725451815503219  0.0165059015330726  1.0000
  O   O12       1.0  0.9013184485914536  0.6274481338154061  0.48349303076794564  1.0000
  O   O13       1.0  0.4013177550892663  0.6274522307693431  0.5165040232372178  1.0000
  O   O14       1.0  0.9013187674617313  0.8725505216255982  0.983491272612703  1.0000
  O   O15       1.0  0.5986842668059397  0.12745156211274625  0.9834943784360632  1.0000
  O   O16       1.0  0.09867318144612372  0.3725534990227716  0.5165124573526754  1.0000
  O   O17       1.0  0.6550392187769488  0.6218673991990683  0.8015024168055689  1.0000
  O   O18       1.0  0.155038500750365  0.8781328504247055  0.6984969931914762  1.0000
  O   O19       1.0  0.3449638220274238  0.12186957060844607  0.6984937331262768  1.0000
  O   O20       1.0  0.8449643456026976  0.3781331041248492  0.8015075004436196  1.0000
  O   O21       1.0  0.34496134855437083  0.3781326038892914  0.19849414307807928  1.0000
  O   O22       1.0  0.844963059579122  0.1218679675348682  0.30150626285140447  1.0000
  O   O23       1.0  0.6550337661997929  0.8781296176367803  0.30150803488733396  1.0000
  O   O24       1.0  0.1550401938135408  0.6218652692557356  0.1984964996058594  1.0000
  O   O25       1.0  0.6106913086547651  0.5080018309634227  0.9289800942335942  1.0000
  O   O26       1.0  0.11068715782244  0.9919985549149147  0.5710180326719296  1.0000
  O   O27       1.0  0.38930928068393206  0.007999255584167  0.5710178862872155  1.0000
  O   O28       1.0  0.8893191330319112  0.4920000234583952  0.9289846303661591  1.0000
  O   O29       1.0  0.38931124472835427  0.49199735726635646  0.0710179536796005  1.0000
  O   O30       1.0  0.8893114234478505  0.0079981887481111  0.42898150328171875  1.0000
  O   O31       1.0  0.610685328453421  0.9920023772416113  0.42898388173758656  1.0000
  O   O32       1.0  0.1106873924435661  0.5079983499175711  0.0710186256609404  1.0000
  O   O33       1.0  0.14950388938724762  0.32136150671828995  0.8807937747671205  1.0000
  O   O34       1.0  0.6495009049243521  0.1786360645347855  0.6192098500762739  1.0000
  O   O35       1.0  0.850496240945006  0.8213644868069563  0.6192082866640404  1.0000
  O   O36       1.0  0.3505038588577563  0.678643310879238  0.8807909641194697  1.0000
  O   O37       1.0  0.8504956848860985  0.6786393112443391  0.1192094812803504  1.0000
  O   O38       1.0  0.350502641523633  0.8213606791018364  0.3807807576524453  1.0000
  O   O39       1.0  0.14949836823092974  0.17863796085713798  0.38078380913096055  1.0000
  O   O40       1.0  0.6495026665845033  0.32136402594824887  0.1192152679945835  1.0000
  O   O41       1.0  0.11839808412353393  0.25554835508771123  0.726308853251531  1.0000
  O   O42       1.0  0.618395487794885  0.24445746031623364  0.7736934273127857  1.0000
  O   O43       1.0  0.8816033442184048  0.7555461854496599  0.7736900000555805  1.0000
  O   O44       1.0  0.38160499891446165  0.7444549977950313  0.7263046428744602  1.0000
  O   O45       1.0  0.8816014901522637  0.7444540925891018  0.273692914763231  1.0000
  O   O46       1.0  0.3816040865152601  0.7555409130547587  0.22630238855249726  1.0000
  O   O47       1.0  0.1183932509993255  0.244457077076305  0.2263050718074169  1.0000
  O   O48       1.0  0.6183945753794547  0.2555450052995454  0.2736941490648448  1.0000
