data_image0
_chemical_formula_structural       Ag4H32C40N12O8
_chemical_formula_sum              "Ag4 H32 C40 N12 O8"
_cell_length_a       6.323902129827384
_cell_length_b       7.945531870201024
_cell_length_c       19.769061204197325
_cell_angle_alpha    90.00046438709272
_cell_angle_beta     90.87084710664058
_cell_angle_gamma    90.00059127824323

_space_group_name_H-M_alt    "P 1"
_space_group_IT_number       1

loop_
  _space_group_symop_operation_xyz
  'x, y, z'

loop_
  _atom_site_type_symbol
  _atom_site_label
  _atom_site_symmetry_multiplicity
  _atom_site_fract_x
  _atom_site_fract_y
  _atom_site_fract_z
  _atom_site_occupancy
  Ag  Ag1       1.0  0.4459233520249057  0.7321657013783707  0.033777430250573594  1.0000
  Ag  Ag2       1.0  0.5540718472083483  0.23217216396889023  0.46622537550577897  1.0000
  Ag  Ag3       1.0  0.5540878913923422  0.26783839653159447  0.9662190242961799  1.0000
  Ag  Ag4       1.0  0.4459293196415217  0.767834451120329  0.5337795606794344  1.0000
  H   H1        1.0  0.024239778280197303  0.8857374719365224  0.3305303980824661  1.0000
  H   H2        1.0  0.9757730938512522  0.38572017353995847  0.1694776921417755  1.0000
  H   H3        1.0  0.9757599114784483  0.11425529887387138  0.6694730026398332  1.0000
  H   H4        1.0  0.024224667598119302  0.614248684499529  0.830530745254748  1.0000
  H   H5        1.0  0.9329062151230474  0.9499998094937677  0.21141956763396047  1.0000
  H   H6        1.0  0.06709175591496569  0.449994228041163  0.2885885635015271  1.0000
  H   H7        1.0  0.06708728892705548  0.04997785844575019  0.7885817357114888  1.0000
  H   H8        1.0  0.9328901599244048  0.54999350847617  0.7114201916079496  1.0000
  H   H9        1.0  0.5664565409760414  0.13434853169815852  0.1817202567192169  1.0000
  H   H10       1.0  0.43354587298473046  0.6343674387294198  0.3182721837769265  1.0000
  H   H11       1.0  0.4335352779750822  0.8656454976458361  0.8182825445194196  1.0000
  H   H12       1.0  0.5664438249910688  0.3656442104300622  0.6817154134072042  1.0000
  H   H13       1.0  0.654744997725686  0.06989364065164237  0.3021303801361412  1.0000
  H   H14       1.0  0.34526897883158375  0.5698945227730903  0.19786450892981117  1.0000
  H   H15       1.0  0.3452449626352063  0.9301205258268083  0.6978764467543428  1.0000
  H   H16       1.0  0.6547363912896883  0.4301057993454761  0.8021252983067484  1.0000
  H   H17       1.0  0.11718962991349001  0.20306147676996733  0.10639476586026571  1.0000
  H   H18       1.0  0.8828180491067171  0.7030826757522916  0.3936045477610506  1.0000
  H   H19       1.0  0.882824289790115  0.7969325526648275  0.8936088039482186  1.0000
  H   H20       1.0  0.11717432524453389  0.29693149062189406  0.6063901647072142  1.0000
  H   H21       1.0  0.33912909006305364  0.08241442439774717  0.0839405072058668  1.0000
  H   H22       1.0  0.6608766031459157  0.5824368818860322  0.4160624213407402  1.0000
  H   H23       1.0  0.6608799474339547  0.9175682779160892  0.9160650284226933  1.0000
  H   H24       1.0  0.33911837819141505  0.4175823188500303  0.5839404175169065  1.0000
  H   H25       1.0  0.9418612754080938  0.5786046344053944  0.0437668182671516  1.0000
  H   H26       1.0  0.0581320273346932  0.0786235194306997  0.45623139646065886  1.0000
  H   H27       1.0  0.05814110605879819  0.4214007219538018  0.9562204236522192  1.0000
  H   H28       1.0  0.9418696254368228  0.9213931641460033  0.5437664620370342  1.0000
  H   H29       1.0  0.7561096353276326  0.08174766237843298  0.0797559762122262  1.0000
  H   H30       1.0  0.24389962701688722  0.5817594921838491  0.42024092091146775  1.0000
  H   H31       1.0  0.24389974936573103  0.9182576941311706  0.9202445039527731  1.0000
  H   H32       1.0  0.756105257369839  0.41825719139596623  0.5797559640596575  1.0000
  C   C1        1.0  0.41007281452270655  0.9126703812627993  0.39363213728418595  1.0000
  C   C2        1.0  0.5899490038534126  0.41265653395819146  0.1063665373002536  1.0000
  C   C3        1.0  0.5899217849948571  0.08733749240298037  0.6063762626075757  1.0000
  C   C4        1.0  0.410067156286928  0.5873324611193949  0.893627445828983  1.0000
  C   C5        1.0  0.347129701945306  0.969930599866771  0.3234950784628552  1.0000
  C   C6        1.0  0.6528894874015448  0.469928610375291  0.1765078068068391  1.0000
  C   C7        1.0  0.6528683373377717  0.0300672052226219  0.6765093145820842  1.0000
  C   C8        1.0  0.34711511915147514  0.5300591261546188  0.8234931225158704  1.0000
  C   C9        1.0  0.14277021503784942  0.9402021858385792  0.2976923066023645  1.0000
  C   C10       1.0  0.8572405090499873  0.4401984497166609  0.202312401102887  1.0000
  C   C11       1.0  0.8572373454926776  0.0597842921622629  0.7023116935946447  1.0000
  C   C12       1.0  0.14275591426511622  0.559776701129401  0.797692478665013  1.0000
  C   C13       1.0  0.09189358690746019  0.9776815498897804  0.23060838321032412  1.0000
  C   C14       1.0  0.908116225592721  0.4776844888097996  0.269394416937395  1.0000
  C   C15       1.0  0.9081044869812159  0.022302410936148893  0.7693955042595846  1.0000
  C   C16       1.0  0.09187879026110579  0.5223082819729256  0.7306079163228175  1.0000
  C   C17       1.0  0.2447708640956492  0.04521551640541329  0.1878323281780965  1.0000
  C   C18       1.0  0.7552360569803868  0.5452279327540667  0.31216795896492044  1.0000
  C   C19       1.0  0.7552303372885235  0.9547671858684409  0.8121721024141664  1.0000
  C   C20       1.0  0.24474658771472954  0.4547711307875346  0.68783017960655  1.0000
  C   C21       1.0  0.4468159126440909  0.07993541160004722  0.21420312587492424  1.0000
  C   C22       1.0  0.5531948010691252  0.5799520985742674  0.2857953002444233  1.0000
  C   C23       1.0  0.5531727094132464  0.9200611348742171  0.7858001433443746  1.0000
  C   C24       1.0  0.4468005966579298  0.4200595506926632  0.7142014719951177  1.0000
  C   C25       1.0  0.49721746038448333  0.044268387086844996  0.2814999832134006  1.0000
  C   C26       1.0  0.5027940517354211  0.5442746229384454  0.21850237910988574  1.0000
  C   C27       1.0  0.5027741851110222  0.9557344522630729  0.7185053457928561  1.0000
  C   C28       1.0  0.4972044387033563  0.45572444066011986  0.7814954417822406  1.0000
  C   C29       1.0  0.1947137218535389  0.08056783963205306  0.11408904357428902  1.0000
  C   C30       1.0  0.8052871671539849  0.5805845323837246  0.3859143275776518  1.0000
  C   C31       1.0  0.8052953504361683  0.9194274483670597  0.8859159865262853  1.0000
  C   C32       1.0  0.1947016285282643  0.41942711689538464  0.6140864139165814  1.0000
  C   C33       1.0  0.9446980058849166  0.7116531220632181  0.056051626657236404  1.0000
  C   C34       1.0  0.05529879645072811  0.21167301422350696  0.4439465749358291  1.0000
  C   C35       1.0  0.055302447415265014  0.28834845862886727  0.9439406519721983  1.0000
  C   C36       1.0  0.9447027522189018  0.7883449279359878  0.5560528002152694  1.0000
  C   C37       1.0  0.842757990192318  0.9636951992311181  0.0751511318814764  1.0000
  C   C38       1.0  0.1572488091784123  0.4637079536468178  0.42484652541693185  1.0000
  C   C39       1.0  0.1572469287732687  0.036303864378275805  0.9248452475079035  1.0000
  C   C40       1.0  0.8427513665909886  0.5363074713409333  0.5751497976402504  1.0000
  N   N1        1.0  0.05280492185713109  0.9541032695978301  0.08536213540120491  1.0000
  N   N2        1.0  0.9471951396837853  0.45411929192344047  0.41463945701230637  1.0000
  N   N3        1.0  0.947199892979846  0.04589327688739078  0.9146357606348516  1.0000
  N   N4        1.0  0.05279857282847189  0.5458923573511286  0.5853588130912968  1.0000
  N   N5        1.0  0.12011897876794819  0.7937768292769576  0.0737413337959367  1.0000
  N   N6        1.0  0.8798818708995527  0.29379633562901103  0.42626124211818717  1.0000
  N   N7        1.0  0.8798937762748266  0.20621720009646785  0.9262561506207732  1.0000
  N   N8        1.0  0.12011324919871673  0.7062153136747253  0.5737395745244597  1.0000
  N   N9        1.0  0.7698704835389095  0.8122083487409737  0.056222441919509  1.0000
  N   N10       1.0  0.2301309740606713  0.31221823320969827  0.4437751440862314  1.0000
  N   N11       1.0  0.23013155089200416  0.18779700766422988  0.9437698555037527  1.0000
  N   N12       1.0  0.769870748082404  0.6877934160818524  0.5562217033017234  1.0000
  O   O1        1.0  0.5952424213738894  0.9447484345642039  0.41554220563206457  1.0000
  O   O2        1.0  0.4047863838513662  0.44473906906538463  0.0844536249980692  1.0000
  O   O3        1.0  0.4047573726291985  0.05526321476719429  0.5844596784726761  1.0000
  O   O4        1.0  0.5952394018343198  0.555265028858585  0.9155384486791149  1.0000
  O   O5        1.0  0.2713124586788069  0.8295291001822135  0.42686782180707883  1.0000
  O   O6        1.0  0.7287109976204958  0.3295030947843856  0.0731356498670195  1.0000
  O   O7        1.0  0.7286726889272331  0.17048003201102088  0.5731399598139078  1.0000
  O   O8        1.0  0.2713093851620556  0.6704695389838377  0.9268659728502371  1.0000
