data_image0
_chemical_formula_structural       Cu2H22C14I2N4
_chemical_formula_sum              "Cu2 H22 C14 I2 N4"
_cell_length_a       4.342044968803358
_cell_length_b       8.504433659447855
_cell_length_c       12.396412282510383
_cell_angle_alpha    81.74777763588766
_cell_angle_beta     83.4394561443416
_cell_angle_gamma    84.51747400287188

_space_group_name_H-M_alt    "P 1"
_space_group_IT_number       1

loop_
  _space_group_symop_operation_xyz
  'x, y, z'

loop_
  _atom_site_type_symbol
  _atom_site_label
  _atom_site_symmetry_multiplicity
  _atom_site_fract_x
  _atom_site_fract_y
  _atom_site_fract_z
  _atom_site_occupancy
  Cu  Cu1       1.0  0.6922418854897288  0.43638216646580463  0.11038705059083752  1.0000
  Cu  Cu2       1.0  0.30775902905576646  0.5636171220974547  0.8896125550067709  1.0000
  H   H1        1.0  0.7814280122992728  0.47968840752444913  0.35784358225021873  1.0000
  H   H2        1.0  0.21856809166752098  0.5203120889945366  0.6421560930128224  1.0000
  H   H3        1.0  0.15367091561461882  0.38747390928642733  0.3222522569358405  1.0000
  H   H4        1.0  0.8463253671714241  0.6125253970077722  0.6777467204714898  1.0000
  H   H5        1.0  0.9602588457831588  0.3349489107027709  0.45556645355274134  1.0000
  H   H6        1.0  0.03973742989775531  0.6650503938161165  0.5444333309937621  1.0000
  H   H7        1.0  0.7942396214451221  0.0319678090239606  0.4642941572383919  1.0000
  H   H8        1.0  0.20574933830043557  0.9680338998779235  0.5357072914429112  1.0000
  H   H9        1.0  0.219163244992032  0.848472562045302  0.3215294536282798  1.0000
  H   H10       1.0  0.7808349853775524  0.15152911317001377  0.6784724442943856  1.0000
  H   H11       1.0  0.5137189582168914  0.7831578909727882  0.41039524078077977  1.0000
  H   H12       1.0  0.486274289859864  0.21684618419836  0.5896066175238702  1.0000
  H   H13       1.0  0.5891097293189632  0.7734679903443507  0.2671522044669814  1.0000
  H   H14       1.0  0.4108847065464261  0.22652773727542544  0.732852033100251  1.0000
  H   H15       1.0  0.3017187113500128  0.2178055479688084  0.0934231561974102  1.0000
  H   H16       1.0  0.6982891614923407  0.7821937166610055  0.9065761809768348  1.0000
  H   H17       1.0  0.16798640293400524  0.0354178558951332  0.16268422715964453  1.0000
  H   H18       1.0  0.8320238035508822  0.9645814043075163  0.8373134062617852  1.0000
  H   H19       1.0  0.6565078421286471  0.8863654746124683  0.0889767522927016  1.0000
  H   H20       1.0  0.34350449075903094  0.1136349642865113  0.9110231037883596  1.0000
  H   H21       1.0  0.7934354035964547  0.06978880989237267  0.02359103317513701  1.0000
  H   H22       1.0  0.2065722762163986  0.9302116414115886  0.9764106161331799  1.0000
  C   C1        1.0  0.9266571987999157  0.36652337162224313  0.36848581976816064  1.0000
  C   C2        1.0  0.07334105288503416  0.6334783089190382  0.6315136567369707  1.0000
  C   C3        1.0  0.7792321734840257  0.23677068820492758  0.32943079807201775  1.0000
  C   C4        1.0  0.2207592916181866  0.7632298242696861  0.6705690561399325  1.0000
  C   C5        1.0  0.7315912016863705  0.08284435269284532  0.3838398819708289  1.0000
  C   C6        1.0  0.2684025828481396  0.9171561518039582  0.6161598827666738  1.0000
  C   C7        1.0  0.5775615685424854  0.008194093942847803  0.315270713862418  1.0000
  C   C8        1.0  0.4224368548565919  0.9918063945983281  0.6847288719261757  1.0000
  C   C9        1.0  0.4696272142200756  0.8449580561217758  0.3291032517000616  1.0000
  C   C10       1.0  0.5303687038223472  0.155043628846677  0.6708979285578851  1.0000
  C   C11       1.0  0.3774591760718735  0.09742363534335403  0.1315228076504056  1.0000
  C   C12       1.0  0.6225465632625672  0.9025744488148106  0.8684751140033954  1.0000
  C   C13       1.0  0.5832511300981693  0.006423464787630501  0.04967617958314463  1.0000
  C   C14       1.0  0.416761195684387  0.9935769723360297  0.9503244836370897  1.0000
  I   I1        1.0  0.16065527027894427  0.616983076747637  0.1032185989589891  1.0000
  I   I2        1.0  0.8393501043118761  0.38301738608477365  0.8967815255454215  1.0000
  N   N1        1.0  0.6618623482343083  0.2564042721031186  0.23145308147207547  1.0000
  N   N2        1.0  0.3381410716678417  0.7435938200328566  0.7685449296561802  1.0000
  N   N3        1.0  0.5365210621206203  0.1167784506174527  0.22517265098720438  1.0000
  N   N4        1.0  0.46348003124412446  0.8832196477210204  0.7748262567546789  1.0000
