data_image0
_chemical_formula_structural       Cu2H12C28N4Cl4O16
_chemical_formula_sum              "Cu2 H12 C28 N4 Cl4 O16"
_cell_length_a       5.0634237077886874
_cell_length_b       11.819515203867642
_cell_length_c       13.894161978857282
_cell_angle_alpha    84.46247135151191
_cell_angle_beta     85.44616115987264
_cell_angle_gamma    85.54058903568558

_space_group_name_H-M_alt    "P 1"
_space_group_IT_number       1

loop_
  _space_group_symop_operation_xyz
  'x, y, z'

loop_
  _atom_site_type_symbol
  _atom_site_label
  _atom_site_symmetry_multiplicity
  _atom_site_fract_x
  _atom_site_fract_y
  _atom_site_fract_z
  _atom_site_occupancy
  Cu  Cu1       1.0  0.20836847022415134  0.050047120097687525  0.4723973077389515  1.0000
  Cu  Cu2       1.0  0.7916467145532166  0.9499469368992024  0.5276013822725643  1.0000
  H   H1        1.0  0.13784457793478572  0.4954651053671597  0.4134645193686737  1.0000
  H   H2        1.0  0.8621476799253286  0.5045357682777906  0.5865400270934698  1.0000
  H   H3        1.0  0.11206810878026369  0.49985748428887433  0.23452721904961035  1.0000
  H   H4        1.0  0.8879220281957672  0.500144241800399  0.7654773184421301  1.0000
  H   H5        1.0  0.694390101024247  0.21303882722125422  0.22664799101372773  1.0000
  H   H6        1.0  0.30561377109759746  0.7869637504067912  0.7733539256962131  1.0000
  H   H7        1.0  0.27181180034400404  0.911111687605846  0.006244673863811596  1.0000
  H   H8        1.0  0.7281940671119358  0.08889089303707462  0.993752147540917  1.0000
  H   H9        1.0  0.022598270710737667  0.7403370516971038  0.9932576464398082  1.0000
  H   H10       1.0  0.9774073154632814  0.2596672327818013  0.006739763761878202  1.0000
  H   H11       1.0  0.7799384536682227  0.7311363153261256  0.2987781813307392  1.0000
  H   H12       1.0  0.22008623052317944  0.2688602995146709  0.7012157104885333  1.0000
  C   C1        1.0  0.4315306928787805  0.3534340928932167  0.4185280768738123  1.0000
  C   C2        1.0  0.5684503756606673  0.6465625217228991  0.5814771364102497  1.0000
  C   C3        1.0  0.2589194060690545  0.4346290758361064  0.37184476318332566  1.0000
  C   C4        1.0  0.7410576939356304  0.5653675379440346  0.6281627226558227  1.0000
  C   C5        1.0  0.24520958727821102  0.4371438329852708  0.2723704589945796  1.0000
  C   C6        1.0  0.7547860745407035  0.5628604486954529  0.727633712329627  1.0000
  C   C7        1.0  0.4062748480353235  0.35850834774343815  0.220972928538238  1.0000
  C   C8        1.0  0.5936964498688154  0.641487415225555  0.7790340726189695  1.0000
  C   C9        1.0  0.5763314308354309  0.27566760070931207  0.2675834322692906  1.0000
  C   C10       1.0  0.4236664975388462  0.7243349777895033  0.7324186540688087  1.0000
  C   C11       1.0  0.5886746110254677  0.2726695362867915  0.36766589192618676  1.0000
  C   C12       1.0  0.41133408776478564  0.7273398577030578  0.6323353310506121  1.0000
  C   C13       1.0  0.7545549423767214  0.1767704235099998  0.416804373804645  1.0000
  C   C14       1.0  0.24543137777221347  0.8232304524221877  0.5831981828160052  1.0000
  C   C15       1.0  0.026718728162165882  0.911208108945857  0.34033967339394877  1.0000
  C   C16       1.0  0.9732743856164703  0.08878765602412395  0.6596587877380031  1.0000
  C   C17       1.0  0.024176505253713277  0.8672749545534231  0.2428549554147992  1.0000
  C   C18       1.0  0.9758566524133699  0.13271824814928124  0.7571425714021698  1.0000
  C   C19       1.0  0.1586597014313255  0.9166624153984491  0.15900220451629815  1.0000
  C   C20       1.0  0.841346457367173  0.0833384637692944  0.8409904289753881  1.0000
  C   C21       1.0  0.16398656977690956  0.8711272606562943  0.0700357291347515  1.0000
  C   C22       1.0  0.8360139225316843  0.12887191460190914  0.9299579248345464  1.0000
  C   C23       1.0  0.024109583514892584  0.7757818704677816  0.0626398832347022  1.0000
  C   C24       1.0  0.9758990969632108  0.22421559554398848  0.9373594341756897  1.0000
  C   C25       1.0  0.8838753554063599  0.7276011500952393  0.1451736460968789  1.0000
  C   C26       1.0  0.11612442665499147  0.27240228310035525  0.8548239992460862  1.0000
  C   C27       1.0  0.885632916291435  0.771228615558009  0.2347462344382336  1.0000
  C   C28       1.0  0.1143912013118751  0.2287714060104236  0.7652502746214009  1.0000
  N   N1        1.0  0.4491983271941819  0.35404208050985636  0.5224388771950926  1.0000
  N   N2        1.0  0.5507906703662825  0.6459545338895724  0.4775646702716756  1.0000
  N   N3        1.0  0.28494788008253374  0.0249794881859344  0.15853128655832185  1.0000
  N   N4        1.0  0.7150480911881089  0.9750230962690551  0.8414622184439224  1.0000
  Cl  Cl1       1.0  0.3971494878243221  0.3652588688678976  0.09692580583381268  1.0000
  Cl  Cl2       1.0  0.6028559406056359  0.6347462635156306  0.903078017263681  1.0000
  Cl  Cl3       1.0  0.7044140867752444  0.6105668716016484  0.13711421429801618  1.0000
  Cl  Cl4       1.0  0.2956057890599055  0.38943485485543766  0.8628822768208052  1.0000
  O   O1        1.0  0.3716724628639128  0.9075751500202076  0.5437602932740901  1.0000
  O   O2        1.0  0.6283308344183283  0.09241890871820149  0.456238735993736  1.0000
  O   O3        1.0  0.0033119332112007973  0.181912277303546  0.4093547700222544  1.0000
  O   O4        1.0  0.9966721445279202  0.8180903074764886  0.5906412337059378  1.0000
  O   O5        1.0  0.6341074058912214  0.2951924394086802  0.5605502657003639  1.0000
  O   O6        1.0  0.36589080376497657  0.7048084352541578  0.43945123184077056  1.0000
  O   O7        1.0  0.28071949486962205  0.4144374437514813  0.5684111158983995  1.0000
  O   O8        1.0  0.7192770027465227  0.5855617245326599  0.4315941683277628  1.0000
  O   O9        1.0  0.21377445023505706  0.9734492767547142  0.35235671470942254  1.0000
  O   O10       1.0  0.7862227878102744  0.0265456406744562  0.6476337807948694  1.0000
  O   O11       1.0  0.1597494809683155  0.11784952913456694  0.5974761576706127  1.0000
  O   O12       1.0  0.8402399638696353  0.8821564591415411  0.40252589278586015  1.0000
  O   O13       1.0  0.1392657748698909  0.11071849082376423  0.17541991843068416  1.0000
  O   O14       1.0  0.8607324287499124  0.8892823824225857  0.8245837385800882  1.0000
  O   O15       1.0  0.5272752704876781  0.023953660294374405  0.13634379058311194  1.0000
  O   O16       1.0  0.4727228075821372  0.9760480684111742  0.8636547621520376  1.0000
