data_image0
_chemical_formula_structural       Li2H24C6Se2N6
_chemical_formula_sum              "Li2 H24 C6 Se2 N6"
_cell_length_a       7.047242030130258
_cell_length_b       6.944779889123659
_cell_length_c       7.41592783754493
_cell_angle_alpha    72.57880691740769
_cell_angle_beta     86.72085694961328
_cell_angle_gamma    89.57915762455244

_space_group_name_H-M_alt    "P 1"
_space_group_IT_number       1

loop_
  _space_group_symop_operation_xyz
  'x, y, z'

loop_
  _atom_site_type_symbol
  _atom_site_label
  _atom_site_symmetry_multiplicity
  _atom_site_fract_x
  _atom_site_fract_y
  _atom_site_fract_z
  _atom_site_occupancy
  Li  Li1       1.0  0.18318592380398974  0.18807990536806327  0.20665202743173688  1.0000
  Li  Li2       1.0  0.8168133035847732  0.811921301839746  0.7933459923388637  1.0000
  H   H1        1.0  0.1924427880097568  0.36103378660293844  0.8814434865025333  1.0000
  H   H2        1.0  0.8075507890883884  0.6389462937045424  0.11854181999421334  1.0000
  H   H3        1.0  0.18322644520002032  0.5636633142485155  0.9588218879746009  1.0000
  H   H4        1.0  0.8167614258734162  0.4363182333910345  0.04116733049357176  1.0000
  H   H5        1.0  0.4874916300129897  0.5711042178826348  0.7849177881576209  1.0000
  H   H6        1.0  0.5124934934529152  0.42889090590566786  0.21506238277842016  1.0000
  H   H7        1.0  0.5197204283131428  0.31817898494298197  0.924314962809781  1.0000
  H   H8        1.0  0.4802761358843101  0.6818177343913875  0.0756547708344469  1.0000
  H   H9        1.0  0.3210156287427495  0.860356923180298  0.2529854887106848  1.0000
  H   H10       1.0  0.6789992697370693  0.1396443882132274  0.7470063506875134  1.0000
  H   H11       1.0  0.5092102985456606  0.0034374785722733007  0.18912039513948997  1.0000
  H   H12       1.0  0.4908203073375078  0.9965910795282512  0.8108698283312065  1.0000
  H   H13       1.0  0.5588518824883053  0.7874442460493255  0.5001817132469454  1.0000
  H   H14       1.0  0.44116148252279436  0.21256456153517433  0.49982968521279497  1.0000
  H   H15       1.0  0.33150831321057694  0.8570036010256034  0.5759426068080272  1.0000
  H   H16       1.0  0.6684924236470239  0.1430262793582813  0.42405273691489487  1.0000
  H   H17       1.0  0.9305001388610208  0.2331997201545661  0.4013834516062786  1.0000
  H   H18       1.0  0.06953578065311211  0.7667910824441792  0.5986480601311752  1.0000
  H   H19       1.0  0.07810205061265661  0.16500685810530774  0.5727968376077327  1.0000
  H   H20       1.0  0.9218988209386795  0.8350019579166882  0.427170662544917  1.0000
  H   H21       1.0  0.07952913782344241  0.5725745626200975  0.29310596508971537  1.0000
  H   H22       1.0  0.9204426101005725  0.4274173032513531  0.7069607150623368  1.0000
  H   H23       1.0  0.21790365272398302  0.48928161252730723  0.49287723836953  1.0000
  H   H24       1.0  0.782049941519141  0.5107222935779916  0.5071465067830658  1.0000
  C   C1        1.0  0.45450367727103486  0.46229649389416494  0.9259372191596709  1.0000
  C   C2        1.0  0.5454928532269463  0.5376987084830205  0.07403698462998418  1.0000
  C   C3        1.0  0.45546642357160044  0.9115745051653902  0.47626099318798487  1.0000
  C   C4        1.0  0.5445483513359478  0.088462947185846  0.5237625752191306  1.0000
  C   C5        1.0  0.0787736866499316  0.4695021592443425  0.4389320805549487  1.0000
  C   C6        1.0  0.9212695847042696  0.5304013300872015  0.5610303827134115  1.0000
  Se  Se1       1.0  0.8750034586729573  0.0451236717873016  0.09788191434838467  1.0000
  Se  Se2       1.0  0.12500552286834932  0.954826289782247  0.9021258810683432  1.0000
  N   N1        1.0  0.24975442900965564  0.4275902209099841  0.9724862485874936  1.0000
  N   N2        1.0  0.7502348568734051  0.572389826052664  0.027503320043017233  1.0000
  N   N3        1.0  0.3912729649490245  0.9753284888972475  0.2822941711924257  1.0000
  N   N4        1.0  0.6087307524645239  0.024716521304348798  0.7176860209156573  1.0000
  N   N5        1.0  0.06426959806265843  0.2599024047533547  0.4364681151368969  1.0000
  N   N6        1.0  0.935678249681999  0.7401707875385667  0.5635905228201564  1.0000
