data_image0
_chemical_formula_structural       Cd2H38C38N10O10
_chemical_formula_sum              "Cd2 H38 C38 N10 O10"
_cell_length_a       8.907433809890406
_cell_length_b       10.499182092130118
_cell_length_c       13.049238487268633
_cell_angle_alpha    101.63000022901913
_cell_angle_beta     104.35780152957743
_cell_angle_gamma    101.34846921661547

_space_group_name_H-M_alt    "P 1"
_space_group_IT_number       1

loop_
  _space_group_symop_operation_xyz
  'x, y, z'

loop_
  _atom_site_type_symbol
  _atom_site_label
  _atom_site_symmetry_multiplicity
  _atom_site_fract_x
  _atom_site_fract_y
  _atom_site_fract_z
  _atom_site_occupancy
  Cd  Cd1       1.0  0.6386351952637029  0.15353276706798616  0.4429756860283902  1.0000
  Cd  Cd2       1.0  0.36137035679171003  0.846470419739248  0.5570232731520407  1.0000
  H   H1        1.0  0.5092595540309618  0.3509898376687275  0.1485136970921062  1.0000
  H   H2        1.0  0.4907466237558324  0.6490154577368868  0.851494893664082  1.0000
  H   H3        1.0  0.9830900399181388  0.42948782718225686  0.17870190931174082  1.0000
  H   H4        1.0  0.016907799055488195  0.5705093673500699  0.8212955612885368  1.0000
  H   H5        1.0  0.17986776299702706  0.49050430621979746  0.17500646961168806  1.0000
  H   H6        1.0  0.8201251998693097  0.5094847938479957  0.8249835411389483  1.0000
  H   H7        1.0  0.4865562206849462  0.7620123824139496  0.16162033715846752  1.0000
  H   H8        1.0  0.5134448989468653  0.2379878006189742  0.8383766282408089  1.0000
  H   H9        1.0  0.1816647416447594  0.35591835358801654  0.7922745093737406  1.0000
  H   H10       1.0  0.8183372532970948  0.6440738507613303  0.2077313277268402  1.0000
  H   H11       1.0  0.8757081700721443  0.3782077793261962  0.34566250467791093  1.0000
  H   H12       1.0  0.1242846560484381  0.6217773158804718  0.6543299251042711  1.0000
  H   H13       1.0  0.1221929039504914  0.1571147448676058  0.899554797271364  1.0000
  H   H14       1.0  0.8777918183181087  0.8428704641324316  0.10044162482076058  1.0000
  H   H15       1.0  0.9158958392425518  0.09372793747590438  0.8831966054054874  1.0000
  H   H16       1.0  0.08408587437741485  0.9062623006282564  0.11679625115260002  1.0000
  H   H17       1.0  0.7221377355443083  0.08517040472217019  0.7060843713073056  1.0000
  H   H18       1.0  0.2778537554831432  0.914835888308943  0.2939103603734381  1.0000
  H   H19       1.0  0.9918469544796127  0.1921381987241659  0.09988015485039635  1.0000
  H   H20       1.0  0.008137189043360022  0.8078561299658843  0.9001206519367031  1.0000
  H   H21       1.0  0.19177597297088772  0.252947526161222  0.10105353514043712  1.0000
  H   H22       1.0  0.8082069466080242  0.7470356929688293  0.8989438009703934  1.0000
  H   H23       1.0  0.19901948865986438  0.13486120633912432  0.3325117166570024  1.0000
  H   H24       1.0  0.8010023106755925  0.8651530205821629  0.667497110814445  1.0000
  H   H25       1.0  0.008233849555885768  0.3449975454100666  0.579902627822527  1.0000
  H   H26       1.0  0.9917779213115097  0.6550107217487093  0.42010585172874226  1.0000
  H   H27       1.0  0.2800639922203914  0.3537543137695422  0.3019708412732598  1.0000
  H   H28       1.0  0.7199361035001601  0.6462499061456484  0.6980258100805444  1.0000
  H   H29       1.0  0.2000638033724584  0.4810922672193668  0.3621280157310096  1.0000
  H   H30       1.0  0.7999356503154259  0.5189099308046891  0.6378674446554343  1.0000
  H   H31       1.0  0.9343325782318672  0.9997463542135064  0.38312473947139847  1.0000
  H   H32       1.0  0.06570596754094281  0.00025873825791930045  0.6168924365421447  1.0000
  H   H33       1.0  0.8973311956308052  0.32391664017178806  0.9673710585844902  1.0000
  H   H34       1.0  0.1026604082295464  0.6760755607162422  0.03262533225334614  1.0000
  H   H35       1.0  0.09816209058639912  0.3934399985506474  0.9736817141679525  1.0000
  H   H36       1.0  0.9018336810976565  0.6065471490945881  0.026316904545893707  1.0000
  H   H37       1.0  0.6089843483851852  0.637311389232117  0.4592660227057693  1.0000
  H   H38       1.0  0.391011695510322  0.3627019991416844  0.5407367243329874  1.0000
  C   C1        1.0  0.5207263613951413  0.4525840342832268  0.19516304964056994  1.0000
  C   C2        1.0  0.4792752019203805  0.5474212394399203  0.8048393818271934  1.0000
  C   C3        1.0  0.0980747223721821  0.4031482170250698  0.18442680829537042  1.0000
  C   C4        1.0  0.9019206748429626  0.5968449499811825  0.8155688507001742  1.0000
  C   C5        1.0  0.4979871939859564  0.5547847374546394  0.14401147156854682  1.0000
  C   C6        1.0  0.502017006473139  0.44522151076044025  0.8559900310588944  1.0000
  C   C7        1.0  0.5078192702111721  0.6840293305580047  0.2029304166555548  1.0000
  C   C8        1.0  0.49218017606703784  0.31597290687844287  0.7970688803710715  1.0000
  C   C9        1.0  0.06212506459215211  0.2979892471476404  0.7418210709977943  1.0000
  C   C10       1.0  0.9378773903346839  0.7020079611846766  0.25818179156286897  1.0000
  C   C11       1.0  0.9230683013659658  0.2908422297034789  0.34670679679443595  1.0000
  C   C12       1.0  0.07693833175812158  0.7091498702086979  0.6532929223459975  1.0000
  C   C13       1.0  0.5598964858653872  0.48266291775654213  0.3094192743628454  1.0000
  C   C14       1.0  0.44010803635102036  0.5173443374628661  0.6905824400842562  1.0000
  C   C15       1.0  0.006513926520938195  0.18358828966287888  0.8867478906881061  1.0000
  C   C16       1.0  0.9934717669473089  0.8163999088202374  0.11324609755086362  1.0000
  C   C17       1.0  0.8225440143084981  0.15638459613991532  0.6987158075092168  1.0000
  C   C18       1.0  0.1774502973921557  0.8436196814088247  0.3012813935104433  1.0000
  C   C19       1.0  0.0759455072517099  0.27936601350171486  0.09188369514205161  1.0000
  C   C20       1.0  0.9240404990822313  0.7206232392805915  0.9081151088847931  1.0000
  C   C21       1.0  0.5826620265730327  0.3734127368990555  0.36605342731120055  1.0000
  C   C22       1.0  0.4173416508159278  0.6265955888757445  0.633953673253771  1.0000
  C   C23       1.0  0.0894377767194925  0.160921191331461  0.33925962475714044  1.0000
  C   C24       1.0  0.910581445593671  0.8390849953201566  0.6607490428130732  1.0000
  C   C25       1.0  0.9742367318710239  0.292899757336599  0.6377864768099714  1.0000
  C   C26       1.0  0.025770609536650092  0.7071054902829133  0.3622184743040791  1.0000
  C   C27       1.0  0.16991935625999588  0.3864706213470653  0.2983300569709684  1.0000
  C   C28       1.0  0.8300797756705833  0.6135305696726616  0.701665191595815  1.0000
  C   C29       1.0  0.9594771788058767  0.09737806051593617  0.3660252232100092  1.0000
  C   C30       1.0  0.040548016984544716  0.9026250469979116  0.6339832235614438  1.0000
  C   C31       1.0  0.016104942473276682  0.3032417332854677  0.9789016718025394  1.0000
  C   C32       1.0  0.9838856916693572  0.6967474702370067  0.02109638556041202  1.0000
  C   C33       1.0  0.5477554946051626  0.7133060058772996  0.3173610861372538  1.0000
  C   C34       1.0  0.452243115737204  0.2866972548196713  0.6826389930390208  1.0000
  C   C35       1.0  0.5760795926123947  0.613299412033868  0.37019422610362807  1.0000
  C   C36       1.0  0.42391753679759603  0.3867028657974457  0.6298069789110132  1.0000
  C   C37       1.0  0.563383020869999  0.8531226192029706  0.3831272650003826  1.0000
  C   C38       1.0  0.4366099525717644  0.1468846488113229  0.6168655735139624  1.0000
  N   N1        1.0  0.9643715947461331  0.21070357366807715  0.7791761077901995  1.0000
  N   N2        1.0  0.035622450872700946  0.7892926547460276  0.22082209465236247  1.0000
  N   N3        1.0  0.06388965974702641  0.2831800850652897  0.326959648232382  1.0000
  N   N4        1.0  0.9361155690691378  0.7168221026200853  0.6730398664564278  1.0000
  N   N5        1.0  0.8248623434919153  0.20445329790340588  0.6119407338241629  1.0000
  N   N6        1.0  0.17514083157399096  0.7955569950764313  0.3880612220858383  1.0000
  N   N7        1.0  0.4530280948184711  0.5275967756343576  0.025738164818008585  1.0000
  N   N8        1.0  0.5469660831003083  0.47240348128830323  0.9742599205771184  1.0000
  N   N9        1.0  0.8566180459461067  0.17958893480952298  0.37036013963093245  1.0000
  N   N10       1.0  0.14339648082551554  0.8204061831681955  0.6296460009249644  1.0000
  O   O1        1.0  0.6831729330842577  0.4057104010822384  0.4607532272604118  1.0000
  O   O2        1.0  0.3168335827611202  0.5942958146204517  0.5392471347070469  1.0000
  O   O3        1.0  0.5001567554233972  0.2531194500127113  0.3141494904657165  1.0000
  O   O4        1.0  0.49985188042316503  0.7468897862117242  0.6858524712868004  1.0000
  O   O5        1.0  0.32920534493406706  0.5580698309544231  0.9740722693174816  1.0000
  O   O6        1.0  0.6707997426905479  0.4419283755172644  0.025931966386970384  1.0000
  O   O7        1.0  0.5843183789775069  0.8745126950437695  0.485604247643849  1.0000
  O   O8        1.0  0.4156826278214112  0.12550158013223006  0.5143910585983491  1.0000
  O   O9        1.0  0.5556151346804016  0.9422804719507243  0.3296844800041542  1.0000
  O   O10       1.0  0.4443717374299681  0.0577258230453523  0.6703063943722756  1.0000
