data_image0
_chemical_formula_structural       K4H44C52O12
_chemical_formula_sum              "K4 H44 C52 O12"
_cell_length_a       6.694774025005548
_cell_length_b       7.271424026123108
_cell_length_c       23.314513958959736
_cell_angle_alpha    91.045657232531
_cell_angle_beta     90.00001250794041
_cell_angle_gamma    90.00014683951142

_space_group_name_H-M_alt    "P 1"
_space_group_IT_number       1

loop_
  _space_group_symop_operation_xyz
  'x, y, z'

loop_
  _atom_site_type_symbol
  _atom_site_label
  _atom_site_symmetry_multiplicity
  _atom_site_fract_x
  _atom_site_fract_y
  _atom_site_fract_z
  _atom_site_occupancy
  K   K1        1.0  0.3086900317606904  0.9156593258026081  0.5498368125285396  1.0000
  K   K2        1.0  0.8086899768915146  0.5843385371925224  0.4501628021170845  1.0000
  K   K3        1.0  0.6913081717571005  0.08433667505865833  0.4501612575723685  1.0000
  K   K4        1.0  0.19130673292740846  0.41565888739587825  0.5498391346418359  1.0000
  H   H1        1.0  0.5881080791342583  0.930415554056147  0.7545211698465337  1.0000
  H   H2        1.0  0.08811140805555341  0.5695886596092025  0.24547803056552206  1.0000
  H   H3        1.0  0.41189311179461197  0.0695845892917362  0.2454782055575038  1.0000
  H   H4        1.0  0.9118942639808625  0.43041149446927573  0.7545222027279408  1.0000
  H   H5        1.0  0.42461111415708797  0.36296787753180854  0.7748037921660753  1.0000
  H   H6        1.0  0.924608038615588  0.13703373277789413  0.2251962127266722  1.0000
  H   H7        1.0  0.5753915704686036  0.6370281447853615  0.22519599371352683  1.0000
  H   H8        1.0  0.07539016491094229  0.8629678021194495  0.7748044556675283  1.0000
  H   H9        1.0  0.7357291625416663  0.8848343005032007  0.8365060727892555  1.0000
  H   H10       1.0  0.23573105908067757  0.6151702513047255  0.16349228048871112  1.0000
  H   H11       1.0  0.26427800319277134  0.11516308655900082  0.1634928613576179  1.0000
  H   H12       1.0  0.7642716255526807  0.3848312728726101  0.8365075300163909  1.0000
  H   H13       1.0  0.2643176281743536  0.48349565330506283  0.8533501883881485  1.0000
  H   H14       1.0  0.7643201290195804  0.0165041920029054  0.1466489407806719  1.0000
  H   H15       1.0  0.7356805753530155  0.5165072248814154  0.146647912494636  1.0000
  H   H16       1.0  0.23568106190826651  0.9834946026931846  0.8533525731901506  1.0000
  H   H17       1.0  0.7313467594564074  0.940969678967946  0.9404926382281857  1.0000
  H   H18       1.0  0.23134841650029614  0.5590293659853458  0.05950611904961531  1.0000
  H   H19       1.0  0.26865592517293635  0.05902908891665961  0.059506731019531904  1.0000
  H   H20       1.0  0.768651280724079  0.44096939653307743  0.9404928212533648  1.0000
  H   H21       1.0  0.49710223479716825  0.7640866503936865  0.0029880292071169014  1.0000
  H   H22       1.0  0.9971030394420738  0.7359130279751582  0.9970111763774198  1.0000
  H   H23       1.0  0.5028959687286516  0.23591486305305415  0.9970109234085527  1.0000
  H   H24       1.0  0.0028951640863752004  0.2640898823872321  0.0029894981731573  1.0000
  H   H25       1.0  0.2666658398861159  0.5336546576838972  0.9576411314120323  1.0000
  H   H26       1.0  0.7666695097698407  0.9663444814658606  0.0423584863283466  1.0000
  H   H27       1.0  0.7333293762347353  0.46634685039666846  0.042357392258900006  1.0000
  H   H28       1.0  0.23333018745926637  0.0336570587959031  0.9576426110105416  1.0000
  H   H29       1.0  0.6066761868424281  0.8835575405607655  0.6506730650003406  1.0000
  H   H30       1.0  0.1066767419048773  0.616446706257591  0.3493252788751704  1.0000
  H   H31       1.0  0.3933220166795551  0.11644122195588841  0.3493258753025827  1.0000
  H   H32       1.0  0.8933244490243482  0.3835534478155935  0.650674954418136  1.0000
  H   H33       1.0  0.40659377131601804  0.16429514426791775  0.7048926546734438  1.0000
  H   H34       1.0  0.9065913048637951  0.3357077935649145  0.2951069261183861  1.0000
  H   H35       1.0  0.5934089133114142  0.8357022481516413  0.2951067084178973  1.0000
  H   H36       1.0  0.09341137976974781  0.664293735975079  0.7048933133313469  1.0000
  H   H37       1.0  0.8227686110371834  0.9037504225845086  0.5611662217433562  1.0000
  H   H38       1.0  0.3227661940765146  0.596250240697458  0.4388346930745471  1.0000
  H   H39       1.0  0.17722809879078477  0.09625386324115232  0.43883445896354095  1.0000
  H   H40       1.0  0.6772305157457054  0.4037499187330766  0.5611659691632198  1.0000
  H   H41       1.0  0.6679431388126743  0.7374351283059257  0.5612414820293239  1.0000
  H   H42       1.0  0.16794267855873102  0.7625651637201614  0.4387589925639049  1.0000
  H   H43       1.0  0.33205506471750823  0.2625691521588537  0.438758769732992  1.0000
  H   H44       1.0  0.8320540312617482  0.23743362560798434  0.5612420924621235  1.0000
  C   C1        1.0  0.5262279619459705  0.5953608807768589  0.650523208671828  1.0000
  C   C2        1.0  0.026224838434444602  0.9046418219012441  0.34947683896449183  1.0000
  C   C3        1.0  0.47377322898307733  0.40463926793366783  0.3494765956768476  1.0000
  C   C4        1.0  0.9737763524932249  0.09535696743220261  0.6505242460617  1.0000
  C   C5        1.0  0.556030623184718  0.7941016370161337  0.7364355350736389  1.0000
  C   C6        1.0  0.0560313587038479  0.7059025062008788  0.263564091945895  1.0000
  C   C7        1.0  0.44397206144444806  0.2058971255058211  0.2635634052294478  1.0000
  C   C8        1.0  0.943974313332923  0.2940976586029009  0.7364369992368369  1.0000
  C   C9        1.0  0.5665447351521494  0.7684576456460875  0.6776967429649687  1.0000
  C   C10       1.0  0.06654260165854001  0.7315465170526423  0.3223024558758496  1.0000
  C   C11       1.0  0.43345944317785273  0.23153975213788414  0.3223030490710599  1.0000
  C   C12       1.0  0.9334615766812318  0.26845776341919964  0.6776977958866865  1.0000
  C   C13       1.0  0.472470916263795  0.4479324362544831  0.6882152775601184  1.0000
  C   C14       1.0  0.9724646860253685  0.05206791169243271  0.3117847246630633  1.0000
  C   C15       1.0  0.5275287809628538  0.5520677124542815  0.31178452678850027  1.0000
  C   C16       1.0  0.027533517497147404  0.9479308669121738  0.688215502473753  1.0000
  C   C17       1.0  0.46225256690525646  0.4800950094051403  0.7481035865526879  1.0000
  C   C18       1.0  0.9622536677230755  0.019909435434122703  0.2518960044507779  1.0000
  C   C19       1.0  0.5377486240237914  0.5199051393053864  0.2518962177959807  1.0000
  C   C20       1.0  0.03774901691100041  0.980092110193823  0.7481055218328552  1.0000
  C   C21       1.0  0.5037389043140124  0.6501992080545734  0.7737590730383276  1.0000
  C   C22       1.0  0.0037400106331731005  0.8498034361179946  0.22624054401502752  1.0000
  C   C23       1.0  0.4962667677239594  0.3498023107636428  0.22624030852225022  1.0000
  C   C24       1.0  0.9962656614015017  0.15019534785809435  0.7737601120666966  1.0000
  C   C25       1.0  0.4345126829145585  0.2608437319634406  0.6691732172312754  1.0000
  C   C26       1.0  0.9345054951112458  0.23915651555121542  0.3308259243370841  1.0000
  C   C27       1.0  0.5654900017147851  0.7391550359211649  0.3308261520164422  1.0000
  C   C28       1.0  0.06549121470977332  0.7608422898648827  0.6691764475228368  1.0000
  C   C29       1.0  0.49972091243729727  0.6806991798449573  0.8365265765068063  1.0000
  C   C30       1.0  0.9997227761114403  0.8193060065739743  0.1634726538940541  1.0000
  C   C31       1.0  0.5002802784910331  0.31930094741497334  0.16347151206333882  1.0000
  C   C32       1.0  0.0002784148160515001  0.1806927773968141  0.8365280021875064  1.0000
  C   C33       1.0  0.629692628628618  0.8094154131255354  0.8626307641368173  1.0000
  C   C34       1.0  0.12969322054491528  0.6905847724172743  0.1373684208357417  1.0000
  C   C35       1.0  0.3703115497008511  0.1905819685704842  0.1373677410653187  1.0000
  C   C36       1.0  0.8703064766815559  0.3094153709288391  0.8626309545682389  1.0000
  C   C37       1.0  0.36911294623155294  0.582552491352381  0.8720436990063265  1.0000
  C   C38       1.0  0.869116548456752  0.917451000215401  0.12795465783325713  1.0000
  C   C39       1.0  0.6308867509961188  0.41744900600817664  0.1279539667755003  1.0000
  C   C40       1.0  0.1308876298795454  0.08255054005165623  0.8720464395057874  1.0000
  C   C41       1.0  0.6284514283442987  0.8401007202852995  0.9218502079369131  1.0000
  C   C42       1.0  0.12845487485615337  0.6599022132576736  0.07814898925806801  1.0000
  C   C43       1.0  0.37155125628678576  0.15989941770169483  0.07814873852254323  1.0000
  C   C44       1.0  0.871550797182536  0.3400993270111457  0.9218521080810334  1.0000
  C   C45       1.0  0.4981810377873401  0.7413861819318727  0.9566120331317906  1.0000
  C   C46       1.0  0.9981841301122927  0.7586107480590984  0.0433871602186784  1.0000
  C   C47       1.0  0.5018171657363767  0.25861395068717036  0.0433864843828786  1.0000
  C   C48       1.0  0.0018125797097497001  0.24138940600878567  0.9566130730744575  1.0000
  C   C49       1.0  0.36920412721727297  0.6123101763056624  0.931324186886265  1.0000
  C   C50       1.0  0.8692046117567783  0.8876919453715287  0.06867459274810982  1.0000
  C   C51       1.0  0.6307925826057853  0.3876913264140143  0.0686739078400862  1.0000
  C   C52       1.0  0.1307935917680183  0.11230821942342571  0.9313264984343447  1.0000
  O   O1        1.0  0.53681975726996  0.576675014642639  0.5946477230027227  1.0000
  O   O2        1.0  0.0368167304828688  0.9233249621368387  0.40535231309253555  1.0000
  O   O3        1.0  0.4631799399566958  0.4233251340661256  0.405352081345896  1.0000
  O   O4        1.0  0.9631829667420462  0.07667381646952978  0.5946479140443373  1.0000
  O   O5        1.0  0.7257361049690516  0.8356786969036493  0.5362307727808613  1.0000
  O   O6        1.0  0.22573389748637854  0.6643217317011861  0.46376970602293  1.0000
  O   O7        1.0  0.2742591111586208  0.16432696974793973  0.4637703430269866  1.0000
  O   O8        1.0  0.7742598249270357  0.33567567143308713  0.5362305149573532  1.0000
  O   O9        1.0  0.4301763597573398  0.1997942999526502  0.6188908260812127  1.0000
  O   O10       1.0  0.9301678884592732  0.3002073395908483  0.3811104660507069  1.0000
  O   O11       1.0  0.5698233374654792  0.8002030978260278  0.38110896595465255  1.0000
  O   O12       1.0  0.06982434025000832  0.699788693439267  0.6188901777177804  1.0000
