data_image0
_chemical_formula_structural       Zn8H76C80N4O44
_chemical_formula_sum              "Zn8 H76 C80 N4 O44"
_cell_length_a       13.630582931001621
_cell_length_b       14.05486099654789
_cell_length_c       17.5525635520894
_cell_angle_alpha    95.52518167145212
_cell_angle_beta     90.00005412253921
_cell_angle_gamma    89.99997813219105

_space_group_name_H-M_alt    "P 1"
_space_group_IT_number       1

loop_
  _space_group_symop_operation_xyz
  'x, y, z'

loop_
  _atom_site_type_symbol
  _atom_site_label
  _atom_site_symmetry_multiplicity
  _atom_site_fract_x
  _atom_site_fract_y
  _atom_site_fract_z
  _atom_site_occupancy
  Zn  Zn1       1.0  0.5489740319152362  0.015036649498881602  0.7273727253120867  1.0000
  Zn  Zn2       1.0  0.048972606153512316  0.48496110364694545  0.7726275883676834  1.0000
  Zn  Zn3       1.0  0.4510261695427148  0.9849619000382716  0.27262553213076046  1.0000
  Zn  Zn4       1.0  0.9510290625962484  0.5150353176766487  0.2273750675695752  1.0000
  Zn  Zn5       1.0  0.6960000968877937  0.0765177587604313  0.8629727282851078  1.0000
  Zn  Zn6       1.0  0.19600219678234518  0.4234806700535074  0.6370283120082689  1.0000
  Zn  Zn7       1.0  0.30400010457086074  0.9234807948352285  0.13702666890074514  1.0000
  Zn  Zn8       1.0  0.8039987383218306  0.5765193212906466  0.36297347164927624  1.0000
  H   H1        1.0  0.5619449908809672  0.8097128375921727  0.0006798969092259228  1.0000
  H   H2        1.0  0.061942494968192804  0.6902873382073479  0.4993177941726685  1.0000
  H   H3        1.0  0.4380581451535478  0.1902885691784846  0.9993180046339845  1.0000
  H   H4        1.0  0.9380555055575713  0.30971264704945867  0.5006822798693378  1.0000
  H   H5        1.0  0.8204446331863054  0.6449864103230496  0.04395687798309209  1.0000
  H   H6        1.0  0.32043834989765685  0.8550222830460398  0.4560450557688043  1.0000
  H   H7        1.0  0.17955703556035021  0.3550142856905295  0.9560421098098999  1.0000
  H   H8        1.0  0.6795618515598535  0.14497912575428276  0.5439534156448858  1.0000
  H   H9        1.0  0.6230298405490873  0.7328763748029772  0.22687076323774144  1.0000
  H   H10       1.0  0.12301896506326672  0.7671366586914414  0.27313021309247176  1.0000
  H   H11       1.0  0.37697109455262995  0.2671236023364116  0.7731270313192766  1.0000
  H   H12       1.0  0.876975367240654  0.23287119562736083  0.7268721589825731  1.0000
  H   H13       1.0  0.6436522472238481  0.8590216941425409  0.9135268203020956  1.0000
  H   H14       1.0  0.14365219674905214  0.6409762451821804  0.5864745896553032  1.0000
  H   H15       1.0  0.35634428601289164  0.14097828908521853  0.0864726838678891  1.0000
  H   H16       1.0  0.856346537423491  0.35902160780265996  0.4135287431378529  1.0000
  H   H17       1.0  0.8225918280303832  0.606966848367634  0.9265597320361394  1.0000
  H   H18       1.0  0.32258725892037193  0.8930374843319058  0.5734451343708001  1.0000
  H   H19       1.0  0.17741204164873642  0.3930374217246069  0.07343952322117529  1.0000
  H   H20       1.0  0.6774100079617825  0.10696465146013878  0.4265568097635821  1.0000
  H   H21       1.0  0.7268977292726647  0.32018090379260394  0.0777451467539692  1.0000
  H   H22       1.0  0.22689954442449087  0.17981973604720744  0.42225396335526  1.0000
  H   H23       1.0  0.2730995376073651  0.6798190733472963  0.9222526478017627  1.0000
  H   H24       1.0  0.7731013906784981  0.8201788175483457  0.5777454338308488  1.0000
  H   H25       1.0  0.7232163191439158  0.19372760792953872  0.06460285724040199  1.0000
  H   H26       1.0  0.22321883361545505  0.3062730369997054  0.43539739002683575  1.0000
  H   H27       1.0  0.2767831486683151  0.8062730799673401  0.935393851065804  1.0000
  H   H28       1.0  0.7767828351329272  0.6937255226835076  0.5646037167740374  1.0000
  H   H29       1.0  0.6433047964059568  0.2596862387044326  0.010053225920778201  1.0000
  H   H30       1.0  0.14330813810849463  0.2403137117598533  0.4899463418651564  1.0000
  H   H31       1.0  0.35669393776285574  0.7403130236194712  0.9899445151427598  1.0000
  H   H32       1.0  0.8566920633502665  0.7596841270200161  0.5100530018279841  1.0000
  H   H33       1.0  0.9174551697925254  0.45596599783638686  0.0022532318157573094  1.0000
  H   H34       1.0  0.4174615341076873  0.044036018266432116  0.49774611909828076  1.0000
  H   H35       1.0  0.08254136344329051  0.5440354109644545  0.9977452395966396  1.0000
  H   H36       1.0  0.5825416019282131  0.955963250144613  0.5022533315813078  1.0000
  H   H37       1.0  0.8618706638265651  0.39695039581706465  0.0761880869139873  1.0000
  H   H38       1.0  0.36187471250259773  0.10305234863973568  0.4238107085865721  1.0000
  H   H39       1.0  0.1381273366977993  0.6030495813227292  0.9238097076420004  1.0000
  H   H40       1.0  0.6381276898889611  0.896946919771409  0.5761887420927607  1.0000
  H   H41       1.0  0.7876683562076539  0.4559044479992878  0.011052456539559306  1.0000
  H   H42       1.0  0.2876747096526699  0.0440968876068766  0.4889461798682717  1.0000
  H   H43       1.0  0.21232817702803436  0.5440955291407191  0.9889453380159167  1.0000
  H   H44       1.0  0.7123284263828753  0.9559023787749154  0.511052700939814  1.0000
  H   H45       1.0  0.9731048662412933  0.3766864624815369  0.9054260539797953  1.0000
  H   H46       1.0  0.4731092346719095  0.12331759710557579  0.5945727594936655  1.0000
  H   H47       1.0  0.026896068859855404  0.6233149422601797  0.09457127769113781  1.0000
  H   H48       1.0  0.5268917004307526  0.8766831009373561  0.4054267981705734  1.0000
  H   H49       1.0  0.8780267332430471  0.3270989181628893  0.844499367840001  1.0000
  H   H50       1.0  0.37803189059980014  0.17290302563378648  0.6554997882590711  1.0000
  H   H51       1.0  0.12197420185810161  0.6729024865788275  0.155497963830932  1.0000
  H   H52       1.0  0.6219683108582857  0.8270969555642085  0.3444991460406968  1.0000
  H   H53       1.0  0.9567548851730054  0.2502782140090503  0.8914878143098689  1.0000
  H   H54       1.0  0.4567621548559374  0.2497244266128433  0.6085125903120314  1.0000
  H   H55       1.0  0.04324311535184221  0.749723196820838  0.1085112269745494  1.0000
  H   H56       1.0  0.5432402475351595  0.7502755545848386  0.391486343988511  1.0000
  H   H57       1.0  0.802990896774901  0.7376633297023572  0.7166649495527652  1.0000
  H   H58       1.0  0.3029895731620444  0.762330282190817  0.7833379609570272  1.0000
  H   H59       1.0  0.19700930468423658  0.2623366575833971  0.2833356943615186  1.0000
  H   H60       1.0  0.6970113619418898  0.2376689923082935  0.2166631993363026  1.0000
  H   H61       1.0  0.6095871473339118  0.0605276004583288  0.9916932443280189  1.0000
  H   H62       1.0  0.10958394667988361  0.4394701458585715  0.508309961273838  1.0000
  H   H63       1.0  0.39041525505788854  0.9394723847978669  0.008306829715529334  1.0000
  H   H64       1.0  0.8904162547799715  0.5605319919623141  0.49169255273308465  1.0000
  H   H65       1.0  0.7083123411172565  0.01867551103043749  0.0187503451390896  1.0000
  H   H66       1.0  0.20830823936388046  0.4813229956556526  0.4812503010529667  1.0000
  H   H67       1.0  0.29168859398608765  0.9813230445943759  0.981249621918522  1.0000
  H   H68       1.0  0.791693429385333  0.5186769997469086  0.51875262234784  1.0000
  H   H69       1.0  0.8699831292608736  0.0762907785899642  0.8809167868678642  1.0000
  H   H70       1.0  0.36998667423731046  0.4237104648193721  0.6190857293183853  1.0000
  H   H71       1.0  0.1300178058407369  0.9237099133652152  0.11908106118186622  1.0000
  H   H72       1.0  0.6300179290909469  0.5762831012991471  0.38091785239207343  1.0000
  H   H73       1.0  0.8610451047154231  0.0143523208151208  0.8031233955615775  1.0000
  H   H74       1.0  0.36104798718383085  0.4856475015536788  0.6968807169768567  1.0000
  H   H75       1.0  0.13895583038814152  0.9856448051781043  0.1968764645106162  1.0000
  H   H76       1.0  0.6389514806347378  0.5143439221474324  0.3031232741251628  1.0000
  C   C1        1.0  0.8950427885857483  0.5970669606855522  0.78362201128283  1.0000
  C   C2        1.0  0.39504205991603675  0.9029301974769837  0.7163806614620897  1.0000
  C   C3        1.0  0.10495741287235212  0.40293516698906734  0.2163776533665711  1.0000
  C   C4        1.0  0.6049588751871938  0.0970690729636203  0.2836193590882274  1.0000
  C   C5        1.0  0.8210342230307789  0.6667004128708882  0.8192423081553953  1.0000
  C   C6        1.0  0.32103641285804946  0.8332974869217935  0.6807620757257097  1.0000
  C   C7        1.0  0.17896304385181594  0.33329886365798705  0.1807594220081512  1.0000
  C   C8        1.0  0.678964522245778  0.16670250239310747  0.3192391380603326  1.0000
  C   C9        1.0  0.786841616176254  0.6268369762779287  0.1916344772057741  1.0000
  C   C10       1.0  0.28683514361987517  0.8731667167038211  0.3083653488850544  1.0000
  C   C11       1.0  0.21316151985929113  0.37316229010386337  0.8083644036023117  1.0000
  C   C12       1.0  0.7131613896161682  0.126833262465432  0.6916330155419246  1.0000
  C   C13       1.0  0.49967041006616614  0.8360608577962906  0.14751992057394153  1.0000
  C   C14       1.0  0.9996697295991269  0.6639406270734581  0.3524787547555022  1.0000
  C   C15       1.0  0.5003297913915504  0.16393697489581885  0.8524777135046904  1.0000
  C   C16       1.0  0.00032973821556230004  0.33606007502819313  0.6475219426512311  1.0000
  C   C17       1.0  0.5841935667678727  0.7771383676401911  0.11615880294348811  1.0000
  C   C18       1.0  0.0841901818670863  0.7228653881829531  0.38384259045458446  1.0000
  C   C19       1.0  0.41580883562357945  0.2228616155867513  0.8838407012285572  1.0000
  C   C20       1.0  0.9158085523036094  0.2771353159480512  0.6161586768233889  1.0000
  C   C21       1.0  0.6094338196016907  0.7739167059334735  0.03885858151021182  1.0000
  C   C22       1.0  0.10943126233080851  0.7260877495194935  0.4611406036196612  1.0000
  C   C23       1.0  0.3905685827887312  0.22608541768234156  0.9611399433969581  1.0000
  C   C24       1.0  0.8905674718391837  0.2739129505530045  0.5388595239153062  1.0000
  C   C25       1.0  0.6955974046776278  0.7278480345012355  0.01106868645303651  1.0000
  C   C26       1.0  0.19559486325449882  0.7721542645486962  0.4889338179355818  1.0000
  C   C27       1.0  0.30440426407031396  0.27215338444514714  0.9889326343186794  1.0000
  C   C28       1.0  0.8044046045603039  0.22784572273715753  0.511066825978439  1.0000
  C   C29       1.0  0.7524159988084733  0.6806924900348079  0.062368536067800996  1.0000
  C   C30       1.0  0.25241190802645974  0.8193140779388485  0.4376331894340381  1.0000
  C   C31       1.0  0.24758493629327216  0.3193096335812058  0.9376299888388502  1.0000
  C   C32       1.0  0.747585358855126  0.180689485455531  0.5623682918142663  1.0000
  C   C33       1.0  0.7251237432364946  0.6798495719621087  0.1391253046913263  1.0000
  C   C34       1.0  0.22511809022456225  0.8201570036552966  0.3608764016441484  1.0000
  C   C35       1.0  0.2748801264435414  0.32015327255704307  0.8608749833235761  1.0000
  C   C36       1.0  0.7748791766567961  0.1798479893706642  0.639125186589574  1.0000
  C   C37       1.0  0.6421030894581321  0.7299866675555508  0.1665314370603355  1.0000
  C   C38       1.0  0.14209742269764555  0.7700199211665436  0.3334673616168686  1.0000
  C   C39       1.0  0.35789857928735813  0.27001473718605945  0.8334658946108604  1.0000
  C   C40       1.0  0.8578983768948022  0.2299843550145795  0.6665336032521266  1.0000
  C   C41       1.0  0.7264851310463956  0.7308708313537837  0.9305985153821367  1.0000
  C   C42       1.0  0.22648720926145677  0.7691306608804924  0.5694037900799458  1.0000
  C   C43       1.0  0.2735121358348139  0.2691305835347109  0.0694016656450316  1.0000
  C   C44       1.0  0.7735151931311537  0.23086861361841224  0.43059737021389577  1.0000
  C   C45       1.0  0.6915804935671803  0.8029978137258169  0.887808614660706  1.0000
  C   C46       1.0  0.19157825147417643  0.6969993993897817  0.6121933453320239  1.0000
  C   C47       1.0  0.3084175069576461  0.19700145062743957  0.112189696274072  1.0000
  C   C48       1.0  0.8084182817644037  0.3029977326918143  0.3878082243531296  1.0000
  C   C49       1.0  0.7183562633216171  0.8055008344705286  0.8112603969115568  1.0000
  C   C50       1.0  0.21835411657681192  0.6944985216813108  0.6887434519769755  1.0000
  C   C51       1.0  0.28164100356086413  0.19449915687413719  0.18874138674470228  1.0000
  C   C52       1.0  0.7816424166624003  0.30550362222784605  0.3112607716431696  1.0000
  C   C53       1.0  0.7822258644775887  0.7365663233392399  0.7764529768362181  1.0000
  C   C54       1.0  0.2822252003790241  0.7634265694072796  0.7235470162414543  1.0000
  C   C55       1.0  0.21777286969109616  0.26343150732382276  0.22354408737039216  1.0000
  C   C56       1.0  0.7177728001470741  0.23657127140214845  0.2764528973224145  1.0000
  C   C57       1.0  0.7923876601272755  0.6636660331457946  0.8954795748209037  1.0000
  C   C58       1.0  0.29238535291130324  0.8363340170884611  0.6045243795483728  1.0000
  C   C59       1.0  0.20761327497459806  0.3363375221310606  0.1045196269426683  1.0000
  C   C60       1.0  0.7076119139715049  0.16366382980882577  0.3954772436297489  1.0000
  C   C61       1.0  0.6746273497029665  0.8785561544454268  0.7654708847223901  1.0000
  C   C62       1.0  0.17462235399897003  0.6214417417077412  0.7345208591697769  1.0000
  C   C63       1.0  0.32537358539347144  0.121441645778539  0.23451763141243728  1.0000
  C   C64       1.0  0.8253741792326396  0.37855964274206855  0.2654707737845712  1.0000
  C   C65       1.0  0.7904634394645103  0.2535468869988193  0.9709467522146441  1.0000
  C   C66       1.0  0.2904676779408177  0.24645508335040495  0.5290529122648236  1.0000
  C   C67       1.0  0.20953456105882406  0.7464552305298471  0.02905006307646833  1.0000
  C   C68       1.0  0.7095325235182982  0.7535427574587173  0.4709470012998196  1.0000
  C   C69       1.0  0.7172099417482516  0.25897158107098056  0.0351329539584881  1.0000
  C   C70       1.0  0.2172139858982973  0.2410283486951599  0.46486666572712915  1.0000
  C   C71       1.0  0.28278879241964466  0.741029106825998  0.9648637543474621  1.0000
  C   C72       1.0  0.7827869492055088  0.7589694941431091  0.5351338177092799  1.0000
  C   C73       1.0  0.8543588395506064  0.4131563985984386  0.01670861450909201  1.0000
  C   C74       1.0  0.3543659025892297  0.08684563517518029  0.4832906920961832  1.0000
  C   C75       1.0  0.14563769368496796  0.5868442933573591  0.9832892335390896  1.0000
  C   C76       1.0  0.645637233446671  0.9131536332358579  0.5167087585834054  1.0000
  C   C77       1.0  0.9188342664892845  0.31940745745109933  0.897496815034323  1.0000
  C   C78       1.0  0.41884008909656256  0.1805959045484187  0.6025024767072438  1.0000
  C   C79       1.0  0.08116446767920142  0.6805939493201836  0.10250108650734553  1.0000
  C   C80       1.0  0.5811615796506545  0.8194033638628253  0.3974969739718333  1.0000
  N   N1        1.0  0.8528796800105882  0.3256411400955201  0.9637226046396419  1.0000
  N   N2        1.0  0.35288542348354923  0.17436080871456025  0.5362759639287659  1.0000
  N   N3        1.0  0.14711758686851792  0.6743602626174621  0.03627415715850191  1.0000
  N   N4        1.0  0.6471162452633196  0.8256384576674379  0.463722916878801  1.0000
  O   O1        1.0  0.9446027037544839  0.550563791573687  0.8320901757684496  1.0000
  O   O2        1.0  0.44460336405815337  0.9494312224661883  0.6679163604025006  1.0000
  O   O3        1.0  0.05539896499335131  0.4494383421884863  0.16791119849597894  1.0000
  O   O4        1.0  0.5553961037560314  0.05056589946874368  0.3320823599261686  1.0000
  O   O5        1.0  0.9087244801701361  0.5876501403624417  0.7129238386158717  1.0000
  O   O6        1.0  0.40872090030138253  0.9123484659221293  0.7870852193078903  1.0000
  O   O7        1.0  0.09127645493406082  0.4123519974583446  0.28707867539130655  1.0000
  O   O8        1.0  0.5912822357342976  0.08765223212049733  0.2129143383571233  1.0000
  O   O9        1.0  0.860810563161124  0.5823678315902397  0.1612900131190287  1.0000
  O   O10       1.0  0.36080924574955026  0.9176329874994666  0.3387113605615184  1.0000
  O   O11       1.0  0.13918963829847542  0.4176314429089699  0.8387111471740383  1.0000
  O   O12       1.0  0.6391924229975389  0.08236484925094349  0.6612874132606308  1.0000
  O   O13       1.0  0.760259523362386  0.6296570830884392  0.2615273483932441  1.0000
  O   O14       1.0  0.2602573676557469  0.8703459106385621  0.23847468502529517  1.0000
  O   O15       1.0  0.23973994445228194  0.3703414725365731  0.738472618663856  1.0000
  O   O16       1.0  0.7397428338036037  0.12965264701560386  0.7615258519035635  1.0000
  O   O17       1.0  0.8458117471665008  0.014167638110947697  0.8574220827625965  1.0000
  O   O18       1.0  0.34581309534797816  0.4858329033401533  0.6425820725704767  1.0000
  O   O19       1.0  0.15418845429181974  0.9858330599320909  0.14257747490138684  1.0000
  O   O20       1.0  0.6541885734029267  0.514160662778778  0.35742150913894477  1.0000
  O   O21       1.0  0.4311854122850748  0.8567044478385526  0.10161849144799362  1.0000
  O   O22       1.0  0.931181862063781  0.6432977750859551  0.398381329022989  1.0000
  O   O23       1.0  0.5688147891742831  0.14329410981561352  0.8983820454808652  1.0000
  O   O24       1.0  0.06881687210621833  0.35670292498653566  0.6016187985119785  1.0000
  O   O25       1.0  0.6336004997394158  0.9541125934216197  0.8041511581839629  1.0000
  O   O26       1.0  0.13359988842228893  0.5458867864668946  0.6958526311858932  1.0000
  O   O27       1.0  0.3663997017198285  0.045886679048337  0.1958494322376083  1.0000
  O   O28       1.0  0.8664017803285661  0.454113933897716  0.3041531950651475  1.0000
  O   O29       1.0  0.5028119135238996  0.8627618430515582  0.21848605163820173  1.0000
  O   O30       1.0  0.0028128385786843004  0.6372397890862728  0.2815145542619888  1.0000
  O   O31       1.0  0.4971912225119938  0.13723742535948702  0.7815133990413871  1.0000
  O   O32       1.0  0.9971851619461632  0.36276162174360843  0.7184844870224296  1.0000
  O   O33       1.0  0.6622327308839999  0.0155611784608496  0.9762273892064216  1.0000
  O   O34       1.0  0.16222806403698087  0.48443655108295763  0.5237752834934497  1.0000
  O   O35       1.0  0.33776967150733855  0.9844395195818763  0.02377216845832921  1.0000
  O   O36       1.0  0.8377728710693905  0.5155605911442863  0.47622913555077423  1.0000
  O   O37       1.0  0.7934530249463451  0.1800000172340077  0.9224433374970573  1.0000
  O   O38       1.0  0.29345656017472527  0.319999805801416  0.5775555987319478  1.0000
  O   O39       1.0  0.2065457092209542  0.8199999517886739  0.07755217757317472  1.0000
  O   O40       1.0  0.706543641285201  0.6799973242504151  0.4224454010829959  1.0000
  O   O41       1.0  0.6724373799477946  0.8667463588372898  0.6944563273489948  1.0000
  O   O42       1.0  0.17242806519974616  0.6332530467022507  0.8055577469778328  1.0000
  O   O43       1.0  0.32756722338194794  0.13325580130476314  0.3055524552460156  1.0000
  O   O44       1.0  0.8275714026229154  0.36675056336463285  0.1944568413158265  1.0000
