data_image0
_chemical_formula_structural       Cd4H48C48S8N24
_chemical_formula_sum              "Cd4 H48 C48 S8 N24"
_cell_length_a       5.597307758
_cell_length_b       13.772789737
_cell_length_c       18.666
_cell_angle_alpha    90.0
_cell_angle_beta     90.0
_cell_angle_gamma    90.0

_space_group_name_H-M_alt    "P 1"
_space_group_IT_number       1

loop_
  _space_group_symop_operation_xyz
  'x, y, z'

loop_
  _atom_site_type_symbol
  _atom_site_label
  _atom_site_symmetry_multiplicity
  _atom_site_fract_x
  _atom_site_fract_y
  _atom_site_fract_z
  _atom_site_occupancy
  Cd  Cd1       1.0  0.0  0.5000032768597222  0.0  1.0000
  Cd  Cd2       1.0  0.0  0.0  0.49999892853315936  1.0000
  Cd  Cd3       1.0  0.5000010935614512  0.4999996465131531  0.5000026786670944  1.0000
  Cd  Cd4       1.0  0.49999752041506434  0.9999971148183633  0.9999994642665797  1.0000
  H   H1        1.0  0.5566086652189384  0.7078130274370551  0.3052137576341991  1.0000
  H   H2        1.0  0.4434042413431314  0.7921866381717209  0.8052137576341991  1.0000
  H   H3        1.0  0.05658613277915949  0.2921833613119915  0.1947862423658009  1.0000
  H   H4        1.0  0.9433928288922218  0.2078170112704711  0.6947851708989603  1.0000
  H   H5        1.0  0.4433970950503507  0.2921877177278773  0.6947862423658009  1.0000
  H   H6        1.0  0.5565854397674173  0.2078126548545853  0.19478463516554  1.0000
  H   H7        1.0  0.9433964020386085  0.7078181099222576  0.8052142933676194  1.0000
  H   H8        1.0  0.0566165045234612  0.792182281755835  0.30521536483446  1.0000
  H   H9        1.0  0.32408080427726554  0.6521423888343206  0.3488696024858058  1.0000
  H   H10       1.0  0.675932102284804  0.8478601810517148  0.8488674595521246  1.0000
  H   H11       1.0  0.8240640321067758  0.3478583563306188  0.1511303975141942  1.0000
  H   H12       1.0  0.17591850271099216  0.1521463726677368  0.6511282545805201  1.0000
  H   H13       1.0  0.6759285291384174  0.347859808469245  0.6511314689810348  1.0000
  H   H14       1.0  0.32406472511851797  0.15213838590528175  0.1511282545805201  1.0000
  H   H15       1.0  0.1759202892841927  0.6521467452502065  0.8488712096860597  1.0000
  H   H16       1.0  0.8240890441314903  0.8478514682199432  0.3488712096860596  1.0000
  H   H17       1.0  0.4268980916021333  0.6414423053498481  0.060318225650917205  1.0000
  H   H18       1.0  0.5731148149599363  0.8585602645361872  0.5603171541840766  1.0000
  H   H19       1.0  0.9268813194316435  0.3585584398150914  0.4396817743490828  1.0000
  H   H20       1.0  0.073108361678905  0.1414404806287521  0.9396801671488291  1.0000
  H   H21       1.0  0.5731076686671628  0.3585613440923439  0.9396828458159234  1.0000
  H   H22       1.0  0.42687843929699193  0.1414361242128663  0.4396790956819885  1.0000
  H   H23       1.0  0.0731137213984852  0.6414364967953361  0.5603192971177577  1.0000
  H   H24       1.0  0.9269027583099713  0.8585602645361872  0.06031929711775771  1.0000
  H   H25       1.0  0.5955291622540813  0.7023203130745657  0.1728002785813771  1.0000
  H   H26       1.0  0.40448195773479506  0.7976793525342103  0.6727981356477031  1.0000
  H   H27       1.0  0.0955102029606891  0.297678253882431  0.3271997214186229  1.0000
  H   H28       1.0  0.9044723318570858  0.2023206665614126  0.8271986499517823  1.0000
  H   H29       1.0  0.4044730248688282  0.2976833363676263  0.8272002571520432  1.0000
  H   H30       1.0  0.5955112965221402  0.2023155840762101  0.3271970427515285  1.0000
  H   H31       1.0  0.904477691576666  0.7023188609359392  0.6727992071145366  1.0000
  H   H32       1.0  0.09554414785137769  0.7976851610887292  0.1728002785813771  1.0000
  H   H33       1.0  0.9848716987414221  0.5772766557700919  0.2822682952962623  1.0000
  H   H34       1.0  0.0151304883814802  0.9227259141159435  0.7822688310296826  1.0000
  H   H35       1.0  0.48485988574080346  0.4227277197414168  0.21773170470373773  1.0000
  H   H36       1.0  0.5151262222233512  0.07727846139556499  0.7177279545698028  1.0000
  H   H37       1.0  0.0151340615278741  0.4227248154641572  0.717732240437158  1.0000
  H   H38       1.0  0.9848609793022546  0.0772682964251672  0.21772741883638963  1.0000
  H   H39       1.0  0.5151280087965445  0.5772788339780348  0.782273652630451  1.0000
  H   H40       1.0  0.4848866843387185  0.9227193794921149  0.2822720454301972  1.0000
  H   H41       1.0  0.8422066828936393  0.5211362503210211  0.1634383370834698  1.0000
  H   H42       1.0  0.1577990773756568  0.978869223842274  0.663438872816883  1.0000
  H   H43       1.0  0.3421948698930208  0.4788666730518613  0.3365616629165302  1.0000
  H   H44       1.0  0.6578055306566881  0.0211409602237538  0.8365579127826024  1.0000
  H   H45       1.0  0.1577972908024634  0.4788666730518613  0.8365616629165302  1.0000
  H   H46       1.0  0.8421923903080852  0.0211271649067797  0.3365573770491821  1.0000
  H   H47       1.0  0.657809103803082  0.521138428528964  0.6634447658844991  1.0000
  H   H48       1.0  0.3422020161857944  0.9788561545946164  0.1634420872173976  1.0000
  C   C1        1.0  0.3327885620256765  0.6280158315902682  0.11027590271081068  1.0000
  C   C2        1.0  0.6672225579631927  0.8719874643650769  0.6102748312439701  1.0000
  C   C3        1.0  0.832773576428387  0.3719856396439808  0.3897240972891893  1.0000
  C   C4        1.0  0.1672161046821614  0.1280154590078055  0.889721418622095  1.0000
  C   C5        1.0  0.6672136250972258  0.3719878178519238  0.8897246330226095  1.0000
  C   C6        1.0  0.3327706962937356  0.1280096504532864  0.389721418622095  1.0000
  C   C7        1.0  0.167223250974935  0.628012201243699  0.610278581377905  1.0000
  C   C8        1.0  0.8327950153067148  0.8719867382957602  0.11027858137790501  1.0000
  C   C9        1.0  0.4275591236839773  0.6624540252356539  0.173802100075001  1.0000
  C   C10       1.0  0.5724502097317057  0.8375441882344887  0.6738010286081675  1.0000
  C   C11       1.0  0.9275423515134875  0.3375438156520261  0.3261968284581584  1.0000
  C   C12       1.0  0.0724455430238677  0.1624543787225008  0.8261973641915789  1.0000
  C   C13       1.0  0.5724466365853189  0.3375467199292785  0.8261989713918325  1.0000
  C   C14       1.0  0.42754125795203624  0.1624507483759317  0.3261941497910641  1.0000
  C   C15       1.0  0.0724455430238677  0.6624547513049706  0.6738031715418416  1.0000
  C   C16       1.0  0.9275745098309824  0.8375456403731218  0.1738026358084213  1.0000
  C   C17       1.0  0.3062382977870186  0.6452839380916799  0.23888246008785793  1.0000
  C   C18       1.0  0.6937746087750511  0.8547164535864127  0.7388808528876041  1.0000
  C   C19       1.0  0.8062215256165288  0.3547160810039429  0.2611175399121421  1.0000
  C   C20       1.0  0.1937592226280458  0.14528719585577926  0.7611148612450478  1.0000
  C   C21       1.0  0.6937692490554639  0.3547175331425763  0.7611180756455553  1.0000
  C   C22       1.0  0.3062204320550777  0.145279935162641  0.261115396978461  1.0000
  C   C23       1.0  0.1937663689208193  0.6452853902303061  0.7388851387549522  1.0000
  C   C24       1.0  0.8062518973608306  0.8547142753784698  0.2388851387549522  1.0000
  C   C25       1.0  0.0897020535064144  0.5926192264500401  0.23435711989714042  1.0000
  C   C26       1.0  0.9103037067628748  0.9073818912973621  0.7343576556305607  1.0000
  C   C27       1.0  0.5896852813359245  0.4073822447842089  0.2656423443694393  1.0000
  C   C28       1.0  0.4103061863478104  0.0926217581448299  0.7656407371691856  1.0000
  C   C29       1.0  0.9103054933360679  0.4073815187148995  0.7656439515697003  1.0000
  C   C30       1.0  0.08968597434766679  0.0926144974516845  0.2656380585020912  1.0000
  C   C31       1.0  0.4103026132014235  0.5926228567966091  0.7343608700310753  1.0000
  C   C32       1.0  0.5897085067874528  0.9073760827428501  0.23435819136397382  1.0000
  C   C33       1.0  0.0093116194880523  0.561111448557071  0.1682015429122501  1.0000
  C   C34       1.0  0.9906923542080506  0.9388925734675908  0.6682020786456633  1.0000
  C   C35       1.0  0.509301993610336  0.4388922008851281  0.3317979213543368  1.0000
  C   C36       1.0  0.490689474073406  0.0611147063211703  0.8317936354869815  1.0000
  C   C37       1.0  0.990690567634857  0.4388907487464948  0.8317984570877499  1.0000
  C   C38       1.0  0.0092991134756915  0.0611045413507725  0.3317941712204018  1.0000
  C   C39       1.0  0.49069662036617956  0.5611121746263805  0.6682074359798591  1.0000
  C   C40       1.0  0.5093180727690835  0.9388831345665096  0.1682058287795982  1.0000
  C   C41       1.0  0.5080370997888579  0.6061008814775022  0.9420390013929065  1.0000
  C   C42       1.0  0.491999032224733  0.8939096751709883  0.4420390013929066  1.0000
  C   C43       1.0  0.0080252867882393  0.39390639831126606  0.5579609986070935  1.0000
  C   C44       1.0  0.9919608211759154  0.1060845353701225  0.0579620700739341  1.0000
  C   C45       1.0  0.4919722336268251  0.3939078504498923  0.0579620700739341  1.0000
  C   C46       1.0  0.5080174474837236  0.10609542640983699  0.5579593914068326  1.0000
  C   C47       1.0  0.9919679674686889  0.6060921686457306  0.44204221579342123  1.0000
  C   C48       1.0  0.0080360062274067  0.8939082230323621  0.9420395371263268  1.0000
  S   S1        1.0  0.7559795142498941  0.6648471496955111  0.9553723347262418  1.0000
  S   S2        1.0  0.2439923011287064  0.8351459812894433  0.4553728704596621  1.0000
  S   S3        1.0  0.255996286420384  0.3351528694001118  0.544625522340084  1.0000
  S   S4        1.0  0.7440059007025184  0.164837338211953  0.0446287367405986  1.0000
  S   S5        1.0  0.24401016686065446  0.335156499746688  0.0446298082074392  1.0000
  S   S6        1.0  0.7559938068354484  0.1648496813902938  0.5446260580735043  1.0000
  S   S7        1.0  0.7440112604221056  0.6648420672103086  0.45537501339333625  1.0000
  S   S8        1.0  0.255978420688443  0.8351597766064103  0.9553723347262418  1.0000
  N   N1        1.0  0.1267198500897564  0.5773354673845503  0.1061159327118801  1.0000
  N   N2        1.0  0.8732859101795327  0.9226678285708018  0.6061148612450467  1.0000
  N   N3        1.0  0.62670486449246  0.4226652777803892  0.39388460302153316  1.0000
  N   N4        1.0  0.3732919629108622  0.0773350948020806  0.893882460087859  1.0000
  N   N5        1.0  0.8732841236063393  0.4226667299190154  0.8938856744883736  1.0000
  N   N6        1.0  0.1267019843578154  0.0773292862475685  0.3938813886210255  1.0000
  N   N7        1.0  0.3732919629108622  0.5773347413152337  0.6061186113789745  1.0000
  N   N8        1.0  0.6267173705048208  0.9226605678776565  0.1061180756455613  1.0000
  N   N9        1.0  0.3864732999374922  0.6818001421145182  0.3023309761062904  1.0000
  N   N10       1.0  0.613537820051377  0.8181995234942576  0.8023299046394499  1.0000
  N   N11       1.0  0.8864511680474223  0.3181984248424712  0.1976695596271298  1.0000
  N   N12       1.0  0.1135295801971523  0.1818033998786248  0.6976690238937096  1.0000
  N   N13       1.0  0.6135342469049903  0.3182013291197308  0.6976706310939704  1.0000
  N   N14       1.0  0.38645543420555123  0.1817975913241057  0.1976658094931949  1.0000
  N   N15       1.0  0.1135277936239589  0.6818052245997208  0.8023309761062904  1.0000
  N   N16       1.0  0.8864851129381108  0.8181944410090549  0.3023299046394499  1.0000
  N   N17       1.0  0.3244809966727544  0.5644520934720489  0.932784206578809  1.0000
  N   N18       1.0  0.67556228163361  0.9355599153150675  0.4327852780456425  1.0000
  N   N19       1.0  0.8244660110754651  0.4355566384553455  0.5672179363548722  1.0000
  N   N20       1.0  0.17552009688869666  0.0644335691567264  0.0672174006214519  1.0000
  N   N21       1.0  0.6755354830357021  0.4355588166632884  0.0672163291546113  1.0000
  N   N22       1.0  0.3244559846480399  0.0644451862657505  0.5672141862209372  1.0000
  N   N23       1.0  0.1755236700350835  0.5644433806402773  0.4327874209793237  1.0000
  N   N24       1.0  0.8244820902342127  0.9355570110378152  0.932784206578809  1.0000
