data_image0
_chemical_formula_structural       Hg4Te4H52C44S8N4
_chemical_formula_sum              "Hg4 Te4 H52 C44 S8 N4"
_cell_length_a       6.40263972
_cell_length_b       9.36477906130517
_cell_length_c       22.43
_cell_angle_alpha    94.45037004923871
_cell_angle_beta     90.0
_cell_angle_gamma    90.0

_space_group_name_H-M_alt    "P 1"
_space_group_IT_number       1

loop_
  _space_group_symop_operation_xyz
  'x, y, z'

loop_
  _atom_site_type_symbol
  _atom_site_label
  _atom_site_symmetry_multiplicity
  _atom_site_fract_x
  _atom_site_fract_y
  _atom_site_fract_z
  _atom_site_occupancy
  Hg  Hg1       1.0  0.7736449677977503  0.48278037710559124  0.6933205351194545  1.0000
  Hg  Hg2       1.0  0.2736402603643597  0.5172235304432746  0.8066771394003354  1.0000
  Hg  Hg3       1.0  0.2263519522226076  0.5172181751423608  0.3066783033990106  1.0000
  Hg  Hg4       1.0  0.7263566596559983  0.4827793060454084  0.193320500420306  1.0000
  Te  Te1       1.0  0.4476028833932233  0.6715857949553836  0.7147029822421445  1.0000
  Te  Te2       1.0  0.9475950959801906  0.3284191836536579  0.7852969561341822  1.0000
  Te  Te3       1.0  0.5524049696177471  0.3284181125934751  0.2852964756035519  1.0000
  Te  Te4       1.0  0.0524096333191792  0.6715793685942941  0.21470188238428992  1.0000
  H   H1        1.0  0.42974462414386483  0.4023855287729816  0.5459843727269629  1.0000
  H   H2        1.0  0.9297383985866361  0.5976130234749704  0.954014911622977  1.0000
  H   H3        1.0  0.5702585432997012  0.5976140945351531  0.4540140546591758  1.0000
  H   H4        1.0  0.0702491502988991  0.4023919551340711  0.0459868100792491  1.0000
  H   H5        1.0  0.268821935212685  0.5040269979389649  0.4999272750092416  1.0000
  H   H6        1.0  0.7688141477996524  0.4959769096099009  7.262866792960045e-05  1.0000
  H   H7        1.0  0.7311781085192806  0.4959736964293526  0.5000725245704771  1.0000
  H   H8        1.0  0.2311749629416937  0.5040302111195132  0.9999300540955504  1.0000
  H   H9        1.0  0.7960310470194613  0.1078546892826537  0.8993385745781383  1.0000
  H   H10       1.0  0.2960435199999054  0.8921427919051154  0.600668254207747  1.0000
  H   H11       1.0  0.2039830534147242  0.8921299391829295  0.1006682836494122  1.0000
  H   H12       1.0  0.703972142290084  0.1078546892826537  0.39933456209485735  1.0000
  H   H13       1.0  0.9587248804310349  0.1903573840537405  0.46976130398945065  1.0000
  H   H14       1.0  0.4587186111418404  0.8096454524349426  0.030235444168241095  1.0000
  H   H15       1.0  0.041279848868334995  0.8096390260738531  0.530239248456617  1.0000
  H   H16       1.0  0.5412548810414748  0.1903541708731922  0.9697611998919982  1.0000
  H   H17       1.0  0.040094400314004  0.1082306314065917  0.5351104508145852  1.0000
  H   H18       1.0  0.5400834891893638  0.8917700629617257  0.9648862279448096  1.0000
  H   H19       1.0  0.9599165764085811  0.8917657787210018  0.4648896558000146  1.0000
  H   H20       1.0  0.4598853174265471  0.1082263471658607  0.0351103120179772  1.0000
  H   H21       1.0  0.2936976125840829  0.3299518707743232  0.4165093391072787  1.0000
  H   H22       1.0  0.7936898251710502  0.6700563210152737  0.0834893658720688  1.0000
  H   H23       1.0  0.7062993074362751  0.6700488235939943  0.5834900146409724  1.0000
  H   H24       1.0  0.206291476291284  0.3299582971354127  0.916510884796608  1.0000
  H   H25       1.0  0.5423716079404812  0.3014905885539605  0.44851148722833767  1.0000
  H   H26       1.0  0.0423653386512868  0.6985176032356293  0.0514858802565854  1.0000
  H   H27       1.0  0.4576299976472811  0.6985122479347226  0.5514857067608361  1.0000
  H   H28       1.0  0.9576159628110403  0.3015023702159638  0.9485140980763732  1.0000
  H   H29       1.0  0.3331906984140005  0.9705122654332711  0.7679169547642033  1.0000
  H   H30       1.0  0.8331860347125684  0.029492713175770305  0.732084321106548  1.0000
  H   H31       1.0  0.6668265257317927  0.0294948552961358  0.232084390504852  1.0000
  H   H32       1.0  0.16681557087519394  0.9705154786138195  0.2679134922098498  1.0000
  H   H33       1.0  0.9914176460955061  0.8805378548314877  0.8767711119162342  1.0000
  H   H34       1.0  0.49143324278755773  0.1194564131757403  0.6232365044351482  1.0000
  H   H35       1.0  0.0085855213480599  0.11944356045355421  0.12323475055091389  1.0000
  H   H36       1.0  0.5085855432140391  0.8805357127111222  0.37676613837169975  1.0000
  H   H37       1.0  0.8577665213372327  0.6964793757089893  0.8008581001136649  1.0000
  H   H38       1.0  0.3577743087502654  0.3035266739602349  0.699145885445084  1.0000
  H   H39       1.0  0.1422350842505296  0.3035116791176833  0.1991440621625529  1.0000
  H   H40       1.0  0.6422444772513316  0.6964772335886309  0.300854018232087  1.0000
  H   H41       1.0  0.4673228747595388  0.1532205143579333  0.8442505566235354  1.0000
  H   H42       1.0  0.9673213347697143  0.8467823221307427  0.6557506498489118  1.0000
  H   H43       1.0  0.5327068442326777  0.8467758957696532  0.1557517791484386  1.0000
  H   H44       1.0  0.0326833945296556  0.1532205143579333  0.3442478816346792  1.0000
  H   H45       1.0  0.4029962816648975  0.1035725906744034  0.5035079169238728  1.0000
  H   H46       1.0  0.9029853705402644  0.8964313168744553  0.9964875284385428  1.0000
  H   H47       1.0  0.5970131332018767  0.8964270326337315  0.4964896187993233  1.0000
  H   H48       1.0  0.0969818742198427  0.1035758038549517  0.0035080210213252  1.0000
  H   H49       1.0  0.278650693779781  0.0719698889397904  0.432649933096144  1.0000
  H   H50       1.0  0.7786413445109446  0.9280372317896167  0.06734517053224919  1.0000
  H   H51       1.0  0.7213524736637851  0.9280308054285271  0.5673480831576754  1.0000
  H   H52       1.0  0.2213274621049592  0.0719763153008799  0.9326501412910417  1.0000
  C   C1        1.0  0.3085836602406857  0.3950830404510626  0.5109457430935932  1.0000
  C   C2        1.0  0.8085774346834569  0.6049176539172549  0.9890522731602189  1.0000
  C   C3        1.0  0.6914195072028804  0.6049165828570722  0.489054021786977  1.0000
  C   C4        1.0  0.1914085523462816  0.3950862536316038  0.010948076348427099  1.0000
  C   C5        1.0  0.7365337120671213  0.0274159274825791  0.8659171732030374  1.0000
  C   C6        1.0  0.23654462319176156  0.972585837945921  0.6340893485479668  1.0000
  C   C7        1.0  0.2634725790880523  0.9725740562839178  0.1340885210258378  1.0000
  C   C8        1.0  0.7634710390982278  0.0274148564223964  0.36591268018912615  1.0000
  C   C9        1.0  0.08642529084863068  0.1834726092028589  0.502359925259313  1.0000
  C   C10       1.0  0.5864175034355981  0.8165312983460069  0.9976368575975274  1.0000
  C   C11       1.0  0.9135794384507392  0.8165259430450931  0.49763935909063406  1.0000
  C   C12       1.0  0.4135559887477172  0.1834715381426761  0.0023607822231141986  1.0000
  C   C13       1.0  0.3736427637068402  0.2968154108588621  0.4565223080932554  1.0000
  C   C14       1.0  0.8736365381496113  0.7031906388103621  0.0434749899933635  1.0000
  C   C15       1.0  0.6263541563135178  0.7031863545696382  0.543476634522662  1.0000
  C   C16       1.0  0.1263416396011081  0.2968207661597759  0.956525156577861  1.0000
  C   C17       1.0  0.587435833419029  0.8221490090014001  0.7795036517889429  1.0000
  C   C18       1.0  0.0874389352646574  0.177853827487283  0.7204975546835044  1.0000
  C   C19       1.0  0.4125735814477451  0.1778506143067347  0.22049834224900883  1.0000
  C   C20       1.0  0.9125751651695282  0.8221479379412173  0.2795027254268447  1.0000
  C   C21       1.0  0.47732499932074995  0.9504288159577143  0.7917977421109158  1.0000
  C   C22       1.0  0.9773312686099445  0.0495761626513271  0.7082026420968788  1.0000
  C   C23       1.0  0.522693786680847  0.0495740205309616  0.20820613935038781  1.0000
  C   C24       1.0  0.0226812699684444  0.950425602777166  0.2917945171931393  1.0000
  C   C25       1.0  0.8463056234561961  0.8998297908324276  0.8532262512240436  1.0000
  C   C26       1.0  0.3463180964366401  0.1001655482349761  0.6467796165005879  1.0000
  C   C27       1.0  0.1536959821315733  0.1001537665729728  0.14677834314697694  1.0000
  C   C28       1.0  0.6536991277091602  0.8998287197722518  0.3532217582101325  1.0000
  C   C29       1.0  0.7722236790171948  0.7965260362637494  0.8100498257753728  1.0000
  C   C30       1.0  0.272226780862816  0.2034725159842026  0.6899543627208047  1.0000
  C   C31       1.0  0.22777792657057458  0.2034639475027475  0.1899514101387467  1.0000
  C   C32       1.0  0.7277888814271734  0.7965238941433839  0.3100466355567377  1.0000
  C   C33       1.0  0.5522112994982038  0.05286110422999  0.8350678695633179  1.0000
  C   C34       1.0  0.0522159631996288  0.9471428033188686  0.6649351549341844  1.0000
  C   C35       1.0  0.44780280093598884  0.9471395901383204  0.1649368341626314  1.0000
  C   C36       1.0  0.947796575378753  0.0528589621096316  0.335064233513215  1.0000
  C   C37       1.0  0.2956124477983266  0.1491665515684844  0.4717126220327899  1.0000
  C   C38       1.0  0.7956030985294902  0.8508394981007399  0.028282892727922598  1.0000
  C   C39       1.0  0.704393843356847  0.850834142799826  0.5282858400525045  1.0000
  C   C40       1.0  0.2043688317980212  0.1491708358092154  0.9717140983238224  1.0000
  C   C41       1.0  0.007551572806598  0.3804780638072174  0.5793218944376478  1.0000
  C   C42       1.0  0.5075500328167806  0.6195204884407346  0.9206760524178677  1.0000
  C   C43       1.0  0.9924515946369681  0.6195172752601863  0.4206790691407463  1.0000
  C   C44       1.0  0.4924437634919769  0.3804759216868518  0.0793218250393508  1.0000
  S   S1        1.0  0.08734678577228999  0.5376829220427624  0.6180760303408946  1.0000
  S   S2        1.0  0.587342122070865  0.4623134880848241  0.8819227387792737  1.0000
  S   S3        1.0  0.9126595053828835  0.46230920384409296  0.38192527497152895  1.0000
  S   S4        1.0  0.4126594835169044  0.5376861352233107  0.1180747969439153  1.0000
  S   S5        1.0  0.7824553963814154  0.2949378423595448  0.5984454305491838  1.0000
  S   S6        1.0  0.2824538126596323  0.7050607098884072  0.9015525163063315  1.0000
  S   S7        1.0  0.2175477710621507  0.7050574967078589  0.4015541955347857  1.0000
  S   S8        1.0  0.7175368599375105  0.2949324870586381  0.09844614871638412  1.0000
  N   N1        1.0  0.1224573042195161  0.3250656942233334  0.5336185404677991  1.0000
  N   N2        1.0  0.6224479549506796  0.6749382133255253  0.9663786882205159  1.0000
  N   N3        1.0  0.8775474250798538  0.6749317869644358  0.46638160084594205  1.0000
  N   N4        1.0  0.3775317846558437  0.3250656942233334  0.0336198779622308  1.0000
