data_image0
_chemical_formula_structural       Cu4H28C28I4N4O4
_chemical_formula_sum              "Cu4 H28 C28 I4 N4 O4"
_cell_length_a       4.0179977015164505
_cell_length_b       8.115420127237993
_cell_length_c       26.19324707015914
_cell_angle_alpha    89.99936856353023
_cell_angle_beta     90.00169782206407
_cell_angle_gamma    89.99938862262113

_space_group_name_H-M_alt    "P 1"
_space_group_IT_number       1

loop_
  _space_group_symop_operation_xyz
  'x, y, z'

loop_
  _atom_site_type_symbol
  _atom_site_label
  _atom_site_symmetry_multiplicity
  _atom_site_fract_x
  _atom_site_fract_y
  _atom_site_fract_z
  _atom_site_occupancy
  Cu  Cu1       1.0  0.4625209084963657  0.7330383887791356  0.9650599703980731  1.0000
  Cu  Cu2       1.0  0.037477985643043596  0.2669601772824278  0.46505917919346734  1.0000
  Cu  Cu3       1.0  0.9625145642463976  0.7669404227863127  0.034941178378758805  1.0000
  Cu  Cu4       1.0  0.537497710329383  0.23307272781226374  0.534940618309335  1.0000
  H   H1        1.0  0.6677873243544427  0.3835761528396305  0.952985426796019  1.0000
  H   H2        1.0  0.8321824690432821  0.616418863677481  0.4529767513067142  1.0000
  H   H3        1.0  0.1677534789849844  0.1164092152708207  0.0470153542009086  1.0000
  H   H4        1.0  0.3322107427950129  0.8836136463057542  0.5470169235645699  1.0000
  H   H5        1.0  0.5961584083120998  0.16027908118343248  0.8897563795572054  1.0000
  H   H6        1.0  0.9038093202546021  0.839713190171345  0.38974610488762823  1.0000
  H   H7        1.0  0.09614438395986011  0.33970421414009166  0.110246361380149  1.0000
  H   H8        1.0  0.4038119475698351  0.6603127670647667  0.6102459918132014  1.0000
  H   H9        1.0  0.073405178785741  0.5102615844050008  0.7937809659322  1.0000
  H   H10       1.0  0.4266084425600313  0.48973057468219855  0.2937827159900124  1.0000
  H   H11       1.0  0.5734242736301098  0.9897181230039392  0.20621876777902773  1.0000
  H   H12       1.0  0.9266180726588757  0.010275557742915  0.7062207873940454  1.0000
  H   H13       1.0  0.16257827711996234  0.7179290202208719  0.861804828414556  1.0000
  H   H14       1.0  0.3374408092619845  0.2820669506621627  0.36180727816611125  1.0000
  H   H15       1.0  0.6625837810488945  0.7820526639728057  0.1381949352771699  1.0000
  H   H16       1.0  0.8374779880855242  0.217943366033829  0.638195431728505  1.0000
  H   H17       1.0  0.3659836908219063  0.9738033875879922  0.843930394132741  1.0000
  H   H18       1.0  0.1340867504666008  0.026190736171677994  0.34392440468026564  1.0000
  H   H19       1.0  0.8660153350176147  0.52618211293656  0.156071836031245  1.0000
  H   H20       1.0  0.6339552579135558  0.47382931880472506  0.6560724026262081  1.0000
  H   H21       1.0  0.6606134144090063  0.013866673231177599  0.7953633721630169  1.0000
  H   H22       1.0  0.8393961020953072  0.9861350189144745  0.2953637387949684  1.0000
  H   H23       1.0  0.16065908836606718  0.486105179427753  0.2046389030239695  1.0000
  H   H24       1.0  0.33932016486746625  0.5139097739836274  0.7046379864596235  1.0000
  H   H25       1.0  0.2685264129281677  0.92830128776653  0.778419852588641  1.0000
  H   H26       1.0  0.2314743322011452  0.0716864731440054  0.2784122442606218  1.0000
  H   H27       1.0  0.768586986371176  0.5716761201152919  0.22158307294100876  1.0000
  H   H28       1.0  0.7313811276969274  0.42831949467475283  0.7215838675525107  1.0000
  C   C1        1.0  0.538674585469913  0.4066048930556719  0.9170452905478897  1.0000
  C   C2        1.0  0.9613057974523258  0.5933901324156494  0.41703843756565123  1.0000
  C   C3        1.0  0.03865800655893991  0.09337871667047888  0.08295680315023193  1.0000
  C   C4        1.0  0.4613304693148592  0.9066342780270845  0.5829569789245498  1.0000
  C   C5        1.0  0.49647981958166554  0.2819897740819357  0.8812308375007165  1.0000
  C   C6        1.0  0.0035031379779227  0.7180018295042669  0.3812233414436221  1.0000
  C   C7        1.0  0.996463052321829  0.21799256410953663  0.1187699343014472  1.0000
  C   C8        1.0  0.5035153823917682  0.7820176914160442  0.6187714880471662  1.0000
  C   C9        1.0  0.3264103426585621  0.31528073697325004  0.8357320181065334  1.0000
  C   C10       1.0  0.17358387618840254  0.684712437891214  0.3357273333047956  1.0000
  C   C11       1.0  0.8264128723277153  0.1847012990500048  0.16426987726450903  1.0000
  C   C12       1.0  0.6735841673138054  0.8153061527880678  0.6642724811328975  1.0000
  C   C13       1.0  0.2075751447590619  0.4759346106092934  0.8282936665472108  1.0000
  C   C14       1.0  0.29242761554056773  0.5240588210722379  0.3282920039303008  1.0000
  C   C15       1.0  0.7075824287227447  0.0240530042527283  0.1717057711660672  1.0000
  C   C16       1.0  0.7924508676129065  0.97594679737913  0.6717064505036775  1.0000
  C   C17       1.0  0.25885677881476016  0.593108283639978  0.8659529039347478  1.0000
  C   C18       1.0  0.2411481630462902  0.40688754407106137  0.3659525615637875  1.0000
  C   C19       1.0  0.7588539211918144  0.9068753384502557  0.1340476861172988  1.0000
  C   C20       1.0  0.7411821714123051  0.09312822819621398  0.6340477947544018  1.0000
  C   C21       1.0  0.25941437232589243  0.18596605308518832  0.7963074252610767  1.0000
  C   C22       1.0  0.24058977358406958  0.8140186255480016  0.296302977269427  1.0000
  C   C23       1.0  0.7594441071763568  0.31400772369526925  0.20369568791723947  1.0000
  C   C24       1.0  0.7405529609104845  0.6859897409956305  0.7036967647498216  1.0000
  C   C25       1.0  0.393078001114219  0.0148715136157449  0.8041780018610256  1.0000
  C   C26       1.0  0.1069450625972621  0.9851141253690444  0.304173480805332  1.0000
  C   C27       1.0  0.8931151260470785  0.4850978354814971  0.19582381969949134  1.0000
  C   C28       1.0  0.6068630238967002  0.5149035977989342  0.6958244986007217  1.0000
  I   I1        1.0  0.9594289843286604  0.9401072885466916  0.9497591000792838  1.0000
  I   I2        1.0  0.5405601070828395  0.059887839174066884  0.44976019606971124  1.0000
  I   I3        1.0  0.4594317712602276  0.5598727720931932  0.0502439433271746  1.0000
  I   I4        1.0  0.0405753736359884  0.4401364234951116  0.5502411427820989  1.0000
  N   N1        1.0  0.420392021393127  0.5605788800465704  0.9101368595741663  1.0000
  N   N2        1.0  0.0796088757669153  0.4394129573122144  0.4101348933884097  1.0000
  N   N3        1.0  0.9203676437060223  0.9394063231350529  0.08986142215795212  1.0000
  N   N4        1.0  0.5796326722362934  0.060603698509055406  0.589862426264375  1.0000
  O   O1        1.0  0.0925959456389265  0.22149213110763807  0.7581551594755497  1.0000
  O   O2        1.0  0.40739099238803783  0.7785037229429008  0.2581531337195742  1.0000
  O   O3        1.0  0.5926386491358997  0.2785010413608191  0.24184527445756743  1.0000
  O   O4        1.0  0.9073681600591499  0.7214963379781737  0.741846615063615  1.0000
