data_image0
_chemical_formula_structural       Co2H36C36N4O12
_chemical_formula_sum              "Co2 H36 C36 N4 O12"
_cell_length_a       7.496591712653128
_cell_length_b       11.111403395006988
_cell_length_c       15.421213684645057
_cell_angle_alpha    89.99868648877606
_cell_angle_beta     89.99747214183583
_cell_angle_gamma    107.88597885877005

_space_group_name_H-M_alt    "P 1"
_space_group_IT_number       1

loop_
  _space_group_symop_operation_xyz
  'x, y, z'

loop_
  _atom_site_type_symbol
  _atom_site_label
  _atom_site_symmetry_multiplicity
  _atom_site_fract_x
  _atom_site_fract_y
  _atom_site_fract_z
  _atom_site_occupancy
  Co  Co1       1.0  0.9999938817199306  2.0076787990294975e-05  0.9999928942205898  1.0000
  Co  Co2       1.0  0.4999665459889399  0.9999558995876395  0.5000009608891176  1.0000
  H   H1        1.0  0.8106119984505396  0.8311804095460571  0.8641888368632493  1.0000
  H   H2        1.0  0.6894230682831618  0.16885933069929135  0.3641714030669974  1.0000
  H   H3        1.0  0.18950341875043356  0.16889079461316203  0.1358059746152165  1.0000
  H   H4        1.0  0.31052856782019933  0.8310548926793114  0.6358292478253915  1.0000
  H   H5        1.0  0.7998586694146468  0.8367673688822349  0.7014727922529502  1.0000
  H   H6        1.0  0.7001678893199496  0.16326870241608296  0.2014863409653316  1.0000
  H   H7        1.0  0.20024421981479182  0.1632857268998436  0.2985077534706733  1.0000
  H   H8        1.0  0.2997135879553525  0.8366873932879173  0.79852468566434  1.0000
  H   H9        1.0  0.9889201072744597  0.03444689551535869  0.6247466259121595  1.0000
  H   H10       1.0  0.5111161738426233  0.9656538411552518  0.1247369080403828  1.0000
  H   H11       1.0  0.01118765785688677  0.9656184836047855  0.3752358650161867  1.0000
  H   H12       1.0  0.48874969505461496  0.03433356125079708  0.8752572585901034  1.0000
  H   H13       1.0  0.18938468881733428  0.21410340422637825  0.7136692905838657  1.0000
  H   H14       1.0  0.31056300872630516  0.785939800214308  0.2136825992423041  1.0000
  H   H15       1.0  0.8105865916110492  0.7859813820176671  0.2863190378410962  1.0000
  H   H16       1.0  0.6893679930042395  0.21398970588344207  0.7863057310558615  1.0000
  H   H17       1.0  0.18826872257760394  0.19081439740229206  0.8758493574871693  1.0000
  H   H18       1.0  0.31164649807649175  0.8092266467419621  0.3758505447673102  1.0000
  H   H19       1.0  0.8116823729561348  0.8092800797917545  0.1241486979406687  1.0000
  H   H20       1.0  0.6883455833042474  0.1906616586038936  0.6241325975501439  1.0000
  H   H21       1.0  0.22768145327778905  0.38431332444505967  0.0333401768660977  1.0000
  H   H22       1.0  0.27230781931974235  0.6156500420245548  0.533374080159696  1.0000
  H   H23       1.0  0.7722746716022754  0.6157467383314098  0.9666714964229327  1.0000
  H   H24       1.0  0.727724701116891  0.3842459690101733  0.4666531567289809  1.0000
  H   H25       1.0  0.6672584631847227  0.37862638654194564  0.9701227011229604  1.0000
  H   H26       1.0  0.832735958527351  0.6213613419166889  0.4701248832451553  1.0000
  H   H27       1.0  0.3327185191107134  0.6214492234845536  0.0298902687014007  1.0000
  H   H28       1.0  0.16732011923257772  0.3785502938382237  0.5299263461560599  1.0000
  H   H29       1.0  0.670012008430014  0.011972016300603603  0.9971212891995833  1.0000
  H   H30       1.0  0.8300891093001682  0.9880483257906146  0.4971518727913562  1.0000
  H   H31       1.0  0.3298969205370382  0.9881305837518324  0.0028404530213208996  1.0000
  H   H32       1.0  0.16996516872305278  0.011885676181435698  0.502844886005839  1.0000
  H   H33       1.0  0.5532013158914992  0.8657927304637099  0.9922339090372815  1.0000
  H   H34       1.0  0.9468842726722926  0.1342479458873171  0.4922533824466626  1.0000
  H   H35       1.0  0.44686270754164054  0.13428352845771485  0.0076980026143758  1.0000
  H   H36       1.0  0.05312251154506953  0.865687486498231  0.507717438583569  1.0000
  C   C1        1.0  0.8926356153035613  0.913042660650909  0.8274928975214522  1.0000
  C   C2        1.0  0.6074293845648029  0.0869567340223512  0.3275028185035822  1.0000
  C   C3        1.0  0.1074696752616688  0.08700303207192658  0.1724934843587107  1.0000
  C   C4        1.0  0.392510320529496  0.9129711552788321  0.6724939416561283  1.0000
  C   C5        1.0  0.8878114916666319  0.9176727520296593  0.7375363071774287  1.0000
  C   C6        1.0  0.6122774176842114  0.08237366973013138  0.2375455532613415  1.0000
  C   C7        1.0  0.1123114306043362  0.08238372465471847  0.2624468321164741  1.0000
  C   C8        1.0  0.3876124642424088  0.9175733285817884  0.7624596372387771  1.0000
  C   C9        1.0  0.9936229487302627  0.026929463689896207  0.6948941675244666  1.0000
  C   C10       1.0  0.5064539917595142  0.9731345318580793  0.1948818260905014  1.0000
  C   C11       1.0  0.006486465681341406  0.9731434350500833  0.3051025893792243  1.0000
  C   C12       1.0  0.4934316138999577  0.026815145348095395  0.805109098371382  1.0000
  C   C13       1.0  0.10304252298590912  0.12748928573099508  0.7444611178965631  1.0000
  C   C14       1.0  0.39700643909515776  0.8725535039705006  0.2444436433186183  1.0000
  C   C15       1.0  0.8970188694966269  0.8725971698368437  0.2555440693775424  1.0000
  C   C16       1.0  0.6029055032537728  0.12738852783738958  0.7555492262846428  1.0000
  C   C17       1.0  0.103524183316992  0.1160432099616244  0.8341817813386925  1.0000
  C   C18       1.0  0.39646968043108194  0.8839647392266697  0.33416735255591584  1.0000
  C   C19       1.0  0.8965114000795609  0.8840219510186459  0.1658234064236765  1.0000
  C   C20       1.0  0.6034636468665368  0.11596389981235687  0.665830056127106  1.0000
  C   C21       1.0  0.8781644413345618  0.22563206107361103  0.0030129828203229003  1.0000
  C   C22       1.0  0.6218333997578469  0.7743482292451771  0.5029851773810989  1.0000
  C   C23       1.0  0.1217945356859929  0.7744318208260808  0.996975345935297  1.0000
  C   C24       1.0  0.3782163025204923  0.2255641573384394  0.4970239023555294  1.0000
  C   C25       1.0  0.9413047925467667  0.36734086870820437  0.0021900253531655  1.0000
  C   C26       1.0  0.5587067907117673  0.6326435932074544  0.5022044995237209  1.0000
  C   C27       1.0  0.05864585506503058  0.6327255743351257  0.9978106241645861  1.0000
  C   C28       1.0  0.44135446412433044  0.3672709943144525  0.4978441359620049  1.0000
  C   C29       1.0  0.12904003286002566  0.4360000750755333  0.0188218704077698  1.0000
  C   C30       1.0  0.37099364943485114  0.5639979601233449  0.5188778082590773  1.0000
  C   C31       1.0  0.8709226937777004  0.5640732550384511  0.9811878573129889  1.0000
  C   C32       1.0  0.6290828353917632  0.4359180009139933  0.4811954684213048  1.0000
  C   C33       1.0  0.8126814154807745  0.43258050929438246  0.9833335189651962  1.0000
  C   C34       1.0  0.6873340859645155  0.567395987005689  0.4833626969022973  1.0000
  C   C35       1.0  0.18728551421602194  0.5674966791324324  0.0166463796324692  1.0000
  C   C36       1.0  0.31272521855736807  0.4325204125335629  0.516673617898725  1.0000
  N   N1        1.0  0.9989137677816017  0.010674441179261902  0.8754766696286183  1.0000
  N   N2        1.0  0.5011025221948981  0.9893305905350185  0.37547906864755726  1.0000
  N   N3        1.0  0.0011142388931090785  0.9893783585630725  0.124520736844012  1.0000
  N   N4        1.0  0.4988273538121462  0.010596080703415105  0.6245183400927415  1.0000
  O   O1        1.0  0.7048057596063231  0.16611103503827707  0.9985071877656752  1.0000
  O   O2        1.0  0.7952129044349334  0.8338666956770524  0.4984933873434514  1.0000
  O   O3        1.0  0.2951597468471476  0.8339558384956689  0.0014454757316855  1.0000
  O   O4        1.0  0.2048419739660758  0.16606545555085003  0.5015040199211356  1.0000
  O   O5        1.0  0.010635928970877725  0.17482470948935003  0.0074711099454063  1.0000
  O   O6        1.0  0.48941143747288157  0.8251985505720612  0.5074716046294085  1.0000
  O   O7        1.0  0.9893411271576085  0.8252611769511301  0.9925476959010735  1.0000
  O   O8        1.0  0.5106774306693822  0.17473178075943  0.4925219115197094  1.0000
  O   O9        1.0  0.6799349477392128  0.9243821016591413  0.00019392846217409997  1.0000
  O   O10       1.0  0.8200939639817121  0.07562537659434548  0.500074461623754  1.0000
  O   O11       1.0  0.32003902676145657  0.0757363859584927  0.9998715660548356  1.0000
  O   O12       1.0  0.17991934823682962  0.9242962334242436  0.49991386780744307  1.0000
