data_image0
_chemical_formula_structural       Zn2H21C37Br2N3O8
_chemical_formula_sum              "Zn2 H21 C37 Br2 N3 O8"
_cell_length_a       11.626695531139946
_cell_length_b       13.192573102621605
_cell_length_c       13.746268864424122
_cell_angle_alpha    85.76658921940648
_cell_angle_beta     59.05848645749851
_cell_angle_gamma    83.79687795463572

_space_group_name_H-M_alt    "P 1"
_space_group_IT_number       1

loop_
  _space_group_symop_operation_xyz
  'x, y, z'

loop_
  _atom_site_type_symbol
  _atom_site_label
  _atom_site_symmetry_multiplicity
  _atom_site_fract_x
  _atom_site_fract_y
  _atom_site_fract_z
  _atom_site_occupancy
  Zn  Zn1       1.0  0.6355775261037663  0.4994497582056638  0.46250930169699717  1.0000
  Zn  Zn2       1.0  0.35907059485629833  0.504805092404503  0.5374664444395805  1.0000
  H   H1        1.0  0.21137461424447676  0.6120827869348913  0.8693142887912444  1.0000
  H   H2        1.0  0.12281918668342223  0.3799614317026111  0.667966038351203  1.0000
  H   H3        1.0  0.3053880203132096  0.7086996416276603  0.13832051848816457  1.0000
  H   H4        1.0  0.22713325127176628  0.6096927027000234  0.4220804574000637  1.0000
  H   H5        1.0  0.18869339640464491  0.6780775681655414  0.04481040513572758  1.0000
  H   H6        1.0  0.7135651904441717  0.3329678009403166  0.19128744964331887  1.0000
  H   H7        1.0  0.5746391223778744  0.30095392268996324  0.962014618787876  1.0000
  H   H8        1.0  0.7079827917694316  0.23179869329148056  0.04636540119783915  1.0000
  H   H9        1.0  0.3936828627080189  0.1804841015449412  0.4540356000301529  1.0000
  H   H10       1.0  0.4250804236787289  0.7470066602775846  0.2111547132909237  1.0000
  H   H11       1.0  0.6140760253574556  0.7328654380709594  0.24626967097184138  1.0000
  H   H12       1.0  0.6580064436328285  0.17732735589203233  0.585546309571825  1.0000
  H   H13       1.0  0.6654239885142702  0.7550456395383163  0.09959391162261969  1.0000
  H   H14       1.0  0.6851257077533505  0.6306850400376331  0.15081453891585264  1.0000
  H   H15       1.0  0.3272038701602682  0.0194504679682623  0.42517365721100486  1.0000
  H   H16       1.0  0.6616109478307381  0.9884899750638994  0.6073688553589135  1.0000
  H   H17       1.0  0.336207596317422  0.8290667615700898  0.43901684842327177  1.0000
  H   H18       1.0  0.776810351666903  0.39477642976194005  0.5645291324395458  1.0000
  H   H19       1.0  0.8679498262686423  0.6352427306263875  0.3324337735405932  1.0000
  H   H20       1.0  0.9196065894971281  0.3465975545065377  0.6585405852295665  1.0000
  H   H21       1.0  0.07613342234205331  0.664311303584654  0.3359121094736679  1.0000
  C   C1        1.0  0.47696263582223947  0.7000344476115361  0.5021099886316803  1.0000
  C   C2        1.0  0.593038184940525  0.46059212493246093  0.17703157765882338  1.0000
  C   C3        1.0  0.5252235010624278  0.18979461235518613  0.5181524179764238  1.0000
  C   C4        1.0  0.5692664730220542  0.49423470555588267  0.28858283414199076  1.0000
  C   C5        1.0  0.46943935589435876  0.8143278700801774  0.5055384163411815  1.0000
  C   C6        1.0  0.3861298227801626  0.9760571860552504  0.4577805697725168  1.0000
  C   C7        1.0  0.39146356749411393  0.8714056791310442  0.46471118649613896  1.0000
  C   C8        1.0  0.5369617407419796  0.8656790806085013  0.5429893164363477  1.0000
  C   C9        1.0  0.5339970377591285  0.9741747214314245  0.5380230316036004  1.0000
  C   C10       1.0  0.45718655022911037  0.029846713507929206  0.4931645290451385  1.0000
  C   C11       1.0  0.4533162776101988  0.13762700633986213  0.486242882810309  1.0000
  C   C12       1.0  0.5238640461722355  0.44975051080120204  0.036099207602646226  1.0000
  C   C13       1.0  0.6020696169825187  0.13477651325680992  0.5608928680545446  1.0000
  C   C14       1.0  0.6043231390623802  0.03013761425236079  0.5724611778033191  1.0000
  C   C15       1.0  0.985034446241123  0.40532733924231207  0.6050694218920325  1.0000
  C   C16       1.0  0.5225039983536419  0.30361127083727263  0.5069832303413762  1.0000
  C   C17       1.0  0.09520001626501078  0.42348971322040524  0.6114317327405772  1.0000
  C   C18       1.0  0.15451164150940133  0.5544009772378616  0.4740590987522992  1.0000
  C   C19       1.0  0.042667445375038  0.543110750392792  0.4621971623579029  1.0000
  C   C20       1.0  0.9567276143169607  0.4653508621824968  0.5290241514626642  1.0000
  C   C21       1.0  0.8458902348014092  0.45312960702050015  0.5161348376917941  1.0000
  C   C22       1.0  0.8994908601449153  0.5883455524539656  0.3845389541569589  1.0000
  C   C23       1.0  0.528104991690313  0.507778156647916  0.11901349226677374  1.0000
  C   C24       1.0  0.011929392934064285  0.6046146141942259  0.3883820920417804  1.0000
  C   C25       1.0  0.4131045946115037  0.4979406721870348  0.7162024790330503  1.0000
  C   C26       1.0  0.2642054028985754  0.6162482127405013  0.9981479446866928  1.0000
  C   C27       1.0  0.38257603945400115  0.5078707376558996  0.8356024935801614  1.0000
  C   C28       1.0  0.6635499583954215  0.36508814878955304  0.145966406269018  1.0000
  C   C29       1.0  0.6592590674155758  0.3090137971180198  0.06590467443778886  1.0000
  C   C30       1.0  0.5863024982666831  0.3492493736347198  0.016214886814530916  1.0000
  C   C31       1.0  0.6191457043386207  0.7012115303670113  0.1724097009270764  1.0000
  C   C32       1.0  0.44907121955266405  0.49190182508593944  0.9810942417190704  1.0000
  C   C33       1.0  0.3551682753034342  0.5787269260866311  0.03433802400734006  1.0000
  C   C34       1.0  0.36456695341620815  0.6350247177453171  0.1136239509723467  1.0000
  C   C35       1.0  0.4606271117060317  0.610277419019731  0.14388872185615753  1.0000
  C   C36       1.0  0.46168314148933115  0.46155537191773993  0.8786378698928489  1.0000
  C   C37       1.0  0.2767349768548683  0.5808929742421896  0.9012284951726742  1.0000
  Br  Br1       1.0  0.6316960269757744  0.7901245349688466  0.6082167741757517  1.0000
  Br  Br2       1.0  0.5894753596322602  0.35341850622624793  0.7861834035727853  1.0000
  N   N1        1.0  0.8186277656508028  0.5126790456922093  0.44746029051187713  1.0000
  N   N2        1.0  0.17853110346550943  0.49695705993103456  0.5459333513657256  1.0000
  N   N3        1.0  0.48444825549173487  0.6812328182597723  0.19951259845338853  1.0000
  O   O1        1.0  0.5940423200508036  0.6545888412380165  0.4500979192692967  1.0000
  O   O2        1.0  0.3656544604990017  0.6595665024665253  0.5478628104191541  1.0000
  O   O3        1.0  0.6692446357185415  0.4825955118322014  0.30406323337884095  1.0000
  O   O4        1.0  0.44908034114563833  0.522593380659586  0.36238003347033754  1.0000
  O   O5        1.0  0.6233453263333715  0.34433954759342095  0.49588763995994606  1.0000
  O   O6        1.0  0.42009759705509  0.35094350027517146  0.5086390117625258  1.0000
  O   O7        1.0  0.5318856463341817  0.5147887748256962  0.638360416504952  1.0000
  O   O8        1.0  0.3167295092849116  0.4824285496965999  0.701562397802128  1.0000
