data_image0
_chemical_formula_structural       Ag4H22C24N10O14
_chemical_formula_sum              "Ag4 H22 C24 N10 O14"
_cell_length_a       8.303874315863432
_cell_length_b       7.7849175385774405
_cell_length_c       13.580672240630092
_cell_angle_alpha    89.42855933292412
_cell_angle_beta     97.04952598322964
_cell_angle_gamma    58.657802719035615

_space_group_name_H-M_alt    "P 1"
_space_group_IT_number       1

loop_
  _space_group_symop_operation_xyz
  'x, y, z'

loop_
  _atom_site_type_symbol
  _atom_site_label
  _atom_site_symmetry_multiplicity
  _atom_site_fract_x
  _atom_site_fract_y
  _atom_site_fract_z
  _atom_site_occupancy
  Ag  Ag1       1.0  0.04718148548643331  0.8606915337744852  0.23060390371281875  1.0000
  Ag  Ag2       1.0  0.9528232362037127  0.1393047475293372  0.769387089055961  1.0000
  Ag  Ag3       1.0  0.6887058901118478  0.21526423680970908  0.3178390552293991  1.0000
  Ag  Ag4       1.0  0.31128255829514007  0.7847456735094911  0.6821595383412673  1.0000
  H   H1        1.0  0.31505672214957753  0.47883192416312437  0.1908226855679445  1.0000
  H   H2        1.0  0.6849425023553478  0.52116315754202  0.8091681954286545  1.0000
  H   H3        1.0  0.19422826360441556  0.42096655201728334  0.09205285176911812  1.0000
  H   H4        1.0  0.8057824150891403  0.5790252844741275  0.9079407947336976  1.0000
  H   H5        1.0  0.44814298958063153  0.3032242343457554  0.1083853308528688  1.0000
  H   H6        1.0  0.551858681239068  0.6967772266324558  0.891610455357224  1.0000
  H   H7        1.0  0.10720199348936178  0.17784865332944116  0.13756332288025422  1.0000
  H   H8        1.0  0.8928067803278806  0.8221415424547089  0.862428133883569  1.0000
  H   H9        1.0  0.627697582470894  0.901826503134586  0.4163867160797921  1.0000
  H   H10       1.0  0.37230099487333485  0.09818005177348972  0.5836131275310594  1.0000
  H   H11       1.0  0.09680741270964426  0.5456427514181996  0.385787241557047  1.0000
  H   H12       1.0  0.9031886969788586  0.4543603021863021  0.6142193683365207  1.0000
  H   H13       1.0  0.606104343485647  0.5628396810258139  0.14314963461350064  1.0000
  H   H14       1.0  0.39390253871099634  0.43715875545245814  0.8568479641375575  1.0000
  H   H15       1.0  0.6914906555774109  0.976923882514761  0.10945039328098724  1.0000
  H   H16       1.0  0.30852205138898364  0.0230665581170442  0.8905448738403834  1.0000
  H   H17       1.0  0.5672993240701344  0.8568938252603643  0.057522421674420315  1.0000
  H   H18       1.0  0.43271359592141306  0.14309704409409824  0.9424765256496815  1.0000
  H   H19       1.0  0.8043514588555281  0.7744136597433665  0.03717934860919313  1.0000
  H   H20       1.0  0.19565906184484305  0.2255742098830211  0.9628182067840358  1.0000
  H   H21       1.0  0.5638685053929676  0.5773503327261054  0.538112296819236  1.0000
  H   H22       1.0  0.43612983316658205  0.4226553776283453  0.46189276084301417  1.0000
  C   C1        1.0  0.32322512679643  0.3567407339184142  0.14712635074462105  1.0000
  C   C2        1.0  0.6767780228492839  0.6432615103217499  0.8528642647990027  1.0000
  C   C3        1.0  0.3464834543012997  0.19145339708787648  0.21438250000082354  1.0000
  C   C4        1.0  0.6535209398043093  0.8085520796610837  0.7856109361698245  1.0000
  C   C5        1.0  0.22317183486551778  0.11781125322200839  0.20037132254861945  1.0000
  C   C6        1.0  0.7768324430231671  0.8821768371181802  0.7996252798793577  1.0000
  C   C7        1.0  0.38527926097042814  0.8944991924675418  0.3396697079519343  1.0000
  C   C8        1.0  0.6147235425108234  0.10549140841115452  0.6603348423845788  1.0000
  C   C9        1.0  0.5091792568612588  0.965780770012138  0.35467568970957336  1.0000
  C   C10       1.0  0.4908206795022493  0.03421939323693832  0.6453208509237031  1.0000
  C   C11       1.0  0.4227919162514268  0.7210845257136214  0.4074716472327183  1.0000
  C   C12       1.0  0.5772076153258537  0.2789177438041719  0.5925299405318541  1.0000
  C   C13       1.0  0.986343954016611  0.5507597633309231  0.33165300051481955  1.0000
  C   C14       1.0  0.013654631335981497  0.4492398738897876  0.6683509189065547  1.0000
  C   C15       1.0  0.9161138379279875  0.4255758411470864  0.3473014891612111  1.0000
  C   C16       1.0  0.08387635294355521  0.5744284492138972  0.6527004257967945  1.0000
  C   C17       1.0  0.9852574899859545  0.28309265750793594  0.44126084285528583  1.0000
  C   C18       1.0  0.014725022681695041  0.716924661337714  0.5587475045181023  1.0000
  C   C19       1.0  0.7156844954113876  0.5595447370531446  0.19755932901079382  1.0000
  C   C20       1.0  0.2843192888912113  0.44045549955452407  0.8024395498989494  1.0000
  C   C21       1.0  0.7817944826000341  0.6889618056565183  0.18175309088817934  1.0000
  C   C22       1.0  0.21820991951394567  0.3110367534050837  0.8182444210929916  1.0000
  C   C23       1.0  0.7045394887030054  0.833245846258066  0.09167426794672913  1.0000
  C   C24       1.0  0.29547260045200824  0.16674627191980562  0.9083223661032066  1.0000
  N   N1        1.0  0.4911583937673355  0.1107490318169795  0.29168912747368847  1.0000
  N   N2        1.0  0.5088412567878963  0.8892469073334721  0.7083091139283726  1.0000
  N   N3        1.0  0.24297917914214637  0.9700412852453584  0.2617708272669432  1.0000
  N   N4        1.0  0.7570276258527995  0.029950062056492796  0.7382293752135354  1.0000
  N   N5        1.0  0.918964837640558  0.6818877483733631  0.2502538322966359  1.0000
  N   N6        1.0  0.08103721220584958  0.3181111905051637  0.7497458010362835  1.0000
  N   N7        1.0  0.7807481407939605  0.4319699892899109  0.2795217273764266  1.0000
  N   N8        1.0  0.2192444023451614  0.5680339212541482  0.7204780662298235  1.0000
  N   N9        1.0  0.20117748861760978  0.7846641463639656  0.9876170783482509  1.0000
  N   N10       1.0  0.7988205561252995  0.21534425757923253  0.01238560427226081  1.0000
  O   O1        1.0  0.5232818664324126  0.7046628124876406  0.4932236857849262  1.0000
  O   O2        1.0  0.4767131221927058  0.2953339720411918  0.5067795343611865  1.0000
  O   O3        1.0  0.3725531581445124  0.6012351827300435  0.380719907221746  1.0000
  O   O4        1.0  0.6274491943556838  0.3987676501606643  0.6192876556370737  1.0000
  O   O5        1.0  0.14470493033645226  0.237760349515689  0.4878053189349033  1.0000
  O   O6        1.0  0.8552689438181312  0.7622439788278612  0.5122019821108098  1.0000
  O   O7        1.0  0.873767018209996  0.22802774222672892  0.46348304848535804  1.0000
  O   O8        1.0  0.126194853137896  0.7719955157404074  0.5365161744427596  1.0000
  O   O9        1.0  0.06901661244467755  0.7698684639680663  0.016699691253990106  1.0000
  O   O10       1.0  0.9309845904715885  0.2301514007921313  0.9833135562166933  1.0000
  O   O11       1.0  0.33292895651803883  0.7736661060833542  0.0498135506475492  1.0000
  O   O12       1.0  0.667084283878445  0.22633599080160846  0.9501803561377928  1.0000
  O   O13       1.0  0.20076651122580808  0.8094949081808379  0.8944616395086485  1.0000
  O   O14       1.0  0.7992211569580475  0.19050941901894453  0.10553945263892932  1.0000
