data_image0
_chemical_formula_structural       Zn2H40C40N4O12
_chemical_formula_sum              "Zn2 H40 C40 N4 O12"
_cell_length_a       7.219470926759443
_cell_length_b       11.284105125685734
_cell_length_c       11.371223678117817
_cell_angle_alpha    90.41170919502831
_cell_angle_beta     96.69158582138128
_cell_angle_gamma    106.00234487616517

_space_group_name_H-M_alt    "P 1"
_space_group_IT_number       1

loop_
  _space_group_symop_operation_xyz
  'x, y, z'

loop_
  _atom_site_type_symbol
  _atom_site_label
  _atom_site_symmetry_multiplicity
  _atom_site_fract_x
  _atom_site_fract_y
  _atom_site_fract_z
  _atom_site_occupancy
  Zn  Zn1       1.0  0.7545689692054226  0.2503013488554302  0.3217207577542425  1.0000
  Zn  Zn2       1.0  0.24543503033275735  0.7497009616889727  0.6782794647026689  1.0000
  H   H1        1.0  0.005300186862058602  0.8590772621286435  0.39312806822667296  1.0000
  H   H2        1.0  0.99470132831982  0.1409222845830556  0.6068746172810505  1.0000
  H   H3        1.0  0.763848266124043  0.8497746728241751  0.41288523591703796  1.0000
  H   H4        1.0  0.2361491021672535  0.15022203768079126  0.5871101305319613  1.0000
  H   H5        1.0  0.9390918177765714  0.9734840722282101  0.13711550399329298  1.0000
  H   H6        1.0  0.06091022936154639  0.0265172651525418  0.8628784306748114  1.0000
  H   H7        1.0  0.8389950600403892  0.8667203686938477  0.9381088751821944  1.0000
  H   H8        1.0  0.161009622284098  0.1332736645539825  0.0618895844539367  1.0000
  H   H9        1.0  0.6592847689704017  0.6446732187506045  0.9215811098002856  1.0000
  H   H10       1.0  0.3407098475563757  0.35532347792868535  0.07841583880794897  1.0000
  H   H11       1.0  0.5695145899280618  0.5327151918122227  0.10286266908365599  1.0000
  H   H12       1.0  0.4304796828836359  0.4672870485219107  0.8971395665342284  1.0000
  H   H13       1.0  0.5110592752758834  0.6394859051714691  0.35879328216074663  1.0000
  H   H14       1.0  0.488946657418559  0.3605145630683779  0.6412035357873973  1.0000
  H   H15       1.0  0.7560663057524125  0.6469328191617694  0.4074781680702841  1.0000
  H   H16       1.0  0.24393617457749878  0.35306945173920923  0.5925175588716768  1.0000
  H   H17       1.0  0.5162367091231204  0.08850420537702058  0.5000809224806488  1.0000
  H   H18       1.0  0.4837530028500013  0.9114970806983749  0.4999218941022362  1.0000
  H   H19       1.0  0.5170384799096297  0.0737006301719987  0.7162742155620093  1.0000
  H   H20       1.0  0.48296443504217723  0.9262989289076343  0.28372855996519053  1.0000
  H   H21       1.0  0.9646631080287164  0.42428027040899263  0.7511956152850628  1.0000
  H   H22       1.0  0.035337950073703474  0.5757183373273878  0.24880439684969954  1.0000
  H   H23       1.0  0.9479486641301803  0.4191262587233596  0.5346600380068407  1.0000
  H   H24       1.0  0.052051261610522204  0.5808695866380588  0.46534076500001476  1.0000
  H   H25       1.0  0.6641369017317514  0.048432147396368905  0.8991042659640198  1.0000
  H   H26       1.0  0.3358644177049187  0.9515701656876561  0.10090018194942019  1.0000
  H   H27       1.0  0.6769701661837003  0.05925277263200711  0.11902508113868038  1.0000
  H   H28       1.0  0.3230306184365404  0.9407550404660654  0.8809776049916421  1.0000
  H   H29       1.0  0.8422067313759385  0.43985656271294005  0.13143918724894374  1.0000
  H   H30       1.0  0.15778650176451953  0.5601502277497376  0.8685568510146592  1.0000
  H   H31       1.0  0.8303996561948281  0.4473910046399184  0.9122387649452502  1.0000
  H   H32       1.0  0.16960041001168952  0.552612164135205  0.08775681203343307  1.0000
  H   H33       1.0  0.33174338406309545  0.13120423129279862  0.3138962867108218  1.0000
  H   H34       1.0  0.6682561323734788  0.8687906860035001  0.6861036051212677  1.0000
  H   H35       1.0  0.41542437729143  0.26670791122064236  0.27175025758874227  1.0000
  H   H36       1.0  0.5845747537286885  0.7332860834656288  0.7282496041676793  1.0000
  H   H37       1.0  0.17500790671122254  0.36925824967263315  0.33261561348598423  1.0000
  H   H38       1.0  0.824998269503766  0.6307394631050869  0.6673812042546314  1.0000
  H   H39       1.0  0.094618757035505  0.23094409986529738  0.37077218521139327  1.0000
  H   H40       1.0  0.9053829300039171  0.7690526750189834  0.6292278567915089  1.0000
  C   C1        1.0  0.9167995423929937  0.021210793309961704  0.3491180744943349  1.0000
  C   C2        1.0  0.0831995586654984  0.9787896512758821  0.6508844610501112  1.0000
  C   C3        1.0  0.8739706061500243  0.8814098142919777  0.3526553637108733  1.0000
  C   C4        1.0  0.1260313468675136  0.11858785592682611  0.6473403028722229  1.0000
  C   C5        1.0  0.8067648572712544  0.8149862701846262  0.2329477228364069  1.0000
  C   C6        1.0  0.19323861352444988  0.1850150850191667  0.7670471829502644  1.0000
  C   C7        1.0  0.8553741128993834  0.8765988498506517  0.12957055762984024  1.0000
  C   C8        1.0  0.14462824942228278  0.1233997484332789  0.8704260201280217  1.0000
  C   C9        1.0  0.801888655109522  0.8170120060962777  0.01783600795543799  1.0000
  C   C10       1.0  0.1981114125270906  0.18298751733728844  0.9821648253346138  1.0000
  C   C11       1.0  0.7007751809775942  0.6922770251638399  0.008479965593807003  1.0000
  C   C12       1.0  0.29921863475463795  0.30772427619497483  0.991519596651116  1.0000
  C   C13       1.0  0.6515971222553105  0.6298059243994487  0.11081121327610077  1.0000
  C   C14       1.0  0.3483957746741311  0.37019630902184286  0.8891918134213981  1.0000
  C   C15       1.0  0.7011357665122092  0.688837471937326  0.22349654628555976  1.0000
  C   C16       1.0  0.2988636960750739  0.3111638898034387  0.7765051382354569  1.0000
  C   C17       1.0  0.6407118848037001  0.6184282461881878  0.3324959146045002  1.0000
  C   C18       1.0  0.35928994413163207  0.3815722067682402  0.6675041576816055  1.0000
  C   C19       1.0  0.5968795880923422  0.4793398485373856  0.31214668080474434  1.0000
  C   C20       1.0  0.40312641626510276  0.5206606360677528  0.6878527804406855  1.0000
  C   C21       1.0  0.616025251064521  0.1595978678220717  0.5598423226085173  1.0000
  C   C22       1.0  0.3839720409199074  0.8404016363307181  0.4401592117416867  1.0000
  C   C23       1.0  0.618668999126413  0.15216721181171525  0.6820406720940894  1.0000
  C   C24       1.0  0.38132774165796945  0.8478276862038  0.31795992079815244  1.0000
  C   C25       1.0  0.7431545884205021  0.24848928798930106  0.7557940688383906  1.0000
  C   C26       1.0  0.256842851533797  0.7515074388809637  0.2442039409078944  1.0000
  C   C27       1.0  0.860607787562337  0.3472780426114994  0.7008545457418476  1.0000
  C   C28       1.0  0.13939428489354108  0.6527196548827946  0.2991455263367228  1.0000
  C   C29       1.0  0.85279285514261  0.3456037780711513  0.5783471458635816  1.0000
  C   C30       1.0  0.14720284740064232  0.6543920247313509  0.4216525059857545  1.0000
  C   C31       1.0  0.7488055721011123  0.24793441670155392  0.8858164740003573  1.0000
  C   C32       1.0  0.25119422812728937  0.7520678567390319  0.11418347839813948  1.0000
  C   C33       1.0  0.7026296212527043  0.13785811045005403  0.9463759667994153  1.0000
  C   C34       1.0  0.2973705882798258  0.8621450910556592  0.053624896773840185  1.0000
  C   C35       1.0  0.7110768852663583  0.1428697022213896  0.06909043179351218  1.0000
  C   C36       1.0  0.28892547098134713  0.857135351417206  0.9309097008514583  1.0000
  C   C37       1.0  0.8070020924344875  0.3554495254749526  0.07630892009444068  1.0000
  C   C38       1.0  0.19299118848131513  0.644557275897924  0.9236888803673579  1.0000
  C   C39       1.0  0.8008569117413205  0.3587195944582789  0.9540160812849336  1.0000
  C   C40       1.0  0.19913625116623734  0.6412835342975499  0.04598256999275208  1.0000
  N   N1        1.0  0.7323382779746481  0.2532910836124316  0.5079665287862055  1.0000
  N   N2        1.0  0.2676596429467892  0.7467065876882514  0.49203503543213134  1.0000
  N   N3        1.0  0.7637098981023344  0.2496364998698156  0.13388555009206018  1.0000
  N   N4        1.0  0.2362897766137594  0.7503722016499526  0.8661135516980634  1.0000
  O   O1        1.0  0.7703919854823835  0.06441237341438472  0.33012104562845207  1.0000
  O   O2        1.0  0.22960810604190135  0.9355871554742734  0.6698806687606974  1.0000
  O   O3        1.0  0.0926423004480128  0.08680961077964611  0.36603993948176583  1.0000
  O   O4        1.0  0.9073556158295658  0.9131908705341445  0.6339704359350689  1.0000
  O   O5        1.0  0.4218789657502313  0.4149569178047016  0.283751045346932  1.0000
  O   O6        1.0  0.5781314814375449  0.5850408484421266  0.7162486857493915  1.0000
  O   O7        1.0  0.7438326657971146  0.4363594012442321  0.32198012493334716  1.0000
  O   O8        1.0  0.2561766429549905  0.5636420579822997  0.6780239519221849  1.0000
  O   O9        1.0  0.43631016815902507  0.18189359108194483  0.27213991699613155  1.0000
  O   O10       1.0  0.5636889389734207  0.8181003981492339  0.7278590636611922  1.0000
  O   O11       1.0  0.06979601499064364  0.3149298453237109  0.37127168258056986  1.0000
  O   O12       1.0  0.9302063473310227  0.6850687529602197  0.6287248951772851  1.0000
