data_image0
_chemical_formula_structural       Zn8As4H28C24S4O32
_chemical_formula_sum              "Zn8 As4 H28 C24 S4 O32"
_cell_length_a       8.386349539209915
_cell_length_b       10.87392601199084
_cell_length_c       12.44212854598473
_cell_angle_alpha    95.09062494008602
_cell_angle_beta     90.00079954276269
_cell_angle_gamma    89.99982953896564

_space_group_name_H-M_alt    "P 1"
_space_group_IT_number       1

loop_
  _space_group_symop_operation_xyz
  'x, y, z'

loop_
  _atom_site_type_symbol
  _atom_site_label
  _atom_site_symmetry_multiplicity
  _atom_site_fract_x
  _atom_site_fract_y
  _atom_site_fract_z
  _atom_site_occupancy
  Zn  Zn1       1.0  0.10402817624963491  0.3890427959772327  0.034137820193834004  1.0000
  Zn  Zn2       1.0  0.6040293803932855  0.1109548069570252  0.9658644874320643  1.0000
  Zn  Zn3       1.0  0.8959611553531914  0.6109549963103476  0.965851242194887  1.0000
  Zn  Zn4       1.0  0.39596710590087275  0.8890419965435186  0.03414458897528049  1.0000
  Zn  Zn5       1.0  0.28824355055519385  0.6285765573165492  0.9430164840701778  1.0000
  Zn  Zn6       1.0  0.7882489014211275  0.8714214929523719  0.05698162657721176  1.0000
  Zn  Zn7       1.0  0.7117493583307706  0.37142122186600796  0.05697659590803279  1.0000
  Zn  Zn8       1.0  0.2117511621458519  0.12857714660184882  0.9430308116621688  1.0000
  As  As1       1.0  0.41921915915877156  0.3476496720086005  0.8582459314741088  1.0000
  As  As2       1.0  0.9192270994190322  0.1523456769131215  0.1417543581700969  1.0000
  As  As3       1.0  0.5807749422434159  0.6523453059195676  0.14175656904860998  1.0000
  As  As4       1.0  0.0807670018912603  0.8476576366421256  0.8582407721140727  1.0000
  H   H1        1.0  0.5951389949419832  0.0726478427638284  0.5195195458203656  1.0000
  H   H2        1.0  0.0951766348312333  0.42734331967954375  0.48047894754719067  1.0000
  H   H3        1.0  0.4048443748998665  0.9273175486322175  0.48049344677137634  1.0000
  H   H4        1.0  0.9048413145286034  0.5726951383572398  0.5195005093987959  1.0000
  H   H5        1.0  0.6818726732179883  0.250387376789952  0.42468023149517353  1.0000
  H   H6        1.0  0.1819201045140701  0.24960183313729803  0.5753157121072547  1.0000
  H   H7        1.0  0.3180904255032644  0.7495715805618492  0.5753234051918312  1.0000
  H   H8        1.0  0.8181121538678227  0.7504467598856833  0.42467098568610595  1.0000
  H   H9        1.0  0.6428907508449058  0.4645645302997252  0.5109320219812402  1.0000
  H   H10       1.0  0.1429217332050925  0.03542565262643651  0.48906443398689703  1.0000
  H   H11       1.0  0.35710215814400204  0.5353999902313406  0.48906482648566657  1.0000
  H   H12       1.0  0.8571212569641277  0.9646192289692977  0.5109275929443413  1.0000
  H   H13       1.0  0.512256432770677  0.49767901776935736  0.6904302429677288  1.0000
  H   H14       1.0  0.0122826581430004  0.0023159542818475994  0.309566162881481  1.0000
  H   H15       1.0  0.4877472079199947  0.5022993544113916  0.30956691021306426  1.0000
  H   H16       1.0  0.9877555624768064  0.9977150494549395  0.6904335945092511  1.0000
  H   H17       1.0  0.12525951105131844  0.6163808161450177  0.1161528947812727  1.0000
  H   H18       1.0  0.625266322507919  0.8836202201411253  0.8838447151597535  1.0000
  H   H19       1.0  0.8747250509638107  0.38360034157897627  0.8838396588585695  1.0000
  H   H20       1.0  0.37473374105497476  0.11638211248946116  0.11616801859381098  1.0000
  H   H21       1.0  0.2393700821585867  0.4413507305617373  0.21240751498702073  1.0000
  H   H22       1.0  0.7393725907180267  0.05865685709616741  0.7875936583273954  1.0000
  H   H23       1.0  0.7606156721953068  0.5586535246118842  0.7875820645347884  1.0000
  H   H24       1.0  0.2606310500906446  0.9413343989234518  0.2124173853858125  1.0000
  H   H25       1.0  0.39086431629722546  0.42954523857913074  0.1360019066202867  1.0000
  H   H26       1.0  0.8908671586035908  0.07046398959159461  0.8640016362626781  1.0000
  H   H27       1.0  0.6091262078145832  0.5704488318054999  0.8639956989198581  1.0000
  H   H28       1.0  0.10913648219281671  0.9295383456571144  0.13601029399308828  1.0000
  C   C1        1.0  0.48575798094024253  0.30354186802150457  0.7087315534900682  1.0000
  C   C2        1.0  0.9857783658540955  0.19645616398093324  0.29126877727270534  1.0000
  C   C3        1.0  0.5142396977500994  0.6964410969239765  0.2912732006864758  1.0000
  C   C4        1.0  0.0142324291895122  0.8035730115797579  0.7087252076307209  1.0000
  C   C5        1.0  0.5070387156513334  0.1836189606060685  0.6593295606848385  1.0000
  C   C6        1.0  0.007061983797441899  0.3163759974885139  0.340673224418417  1.0000
  C   C7        1.0  0.4929613479960153  0.8163593486844648  0.3406868768283431  1.0000
  C   C8        1.0  0.9929452339113639  0.6836550534385495  0.6593120695653383  1.0000
  C   C9        1.0  0.5768893066254606  0.1658283822160698  0.5571160828903672  1.0000
  C   C10       1.0  0.0769193783353543  0.3341692571369705  0.4428859707954373  1.0000
  C   C11       1.0  0.42310121772077036  0.8341480779221655  0.44290101033561763  1.0000
  C   C12       1.0  0.9231021482982271  0.665862730152199  0.5570953795611047  1.0000
  C   C13       1.0  0.6262151508819258  0.2664210875044403  0.5037787373571447  1.0000
  C   C14       1.0  0.1262467080194156  0.2335654194935159  0.4962188740109212  1.0000
  C   C15       1.0  0.3737741809664712  0.7335415550445391  0.4962276055104838  1.0000
  C   C16       1.0  0.8737831656161107  0.7664693035304925  0.5037731437094521  1.0000
  C   C17       1.0  0.6038612345802717  0.3857118787260988  0.5521817495328278  1.0000
  C   C18       1.0  0.10389106401311919  0.11427929035523479  0.4478112008543107  1.0000
  C   C19       1.0  0.39612928958077737  0.6142526418065657  0.4478150989229164  1.0000
  C   C20       1.0  0.8961376172043886  0.8857591257459418  0.5521811123746687  1.0000
  C   C21       1.0  0.5326596293155035  0.4044671170801522  0.6536710984452937  1.0000
  C   C22       1.0  0.0326779041913881  0.09552689645125408  0.34632783504737574  1.0000
  C   C23       1.0  0.46734162655864253  0.5955084826744043  0.3463266366032371  1.0000
  C   C24       1.0  0.9673483922757526  0.9045087262595144  0.6536714881657275  1.0000
  S   S1        1.0  0.4480305824908868  0.04653437083432269  0.7167279856547495  1.0000
  S   S2        1.0  0.9480366944324459  0.45345445555695835  0.2832784846811904  1.0000
  S   S3        1.0  0.5519718659863599  0.9534420919164291  0.28328830411250283  1.0000
  S   S4        1.0  0.0519526370879717  0.5465655135324853  0.7167067261908217  1.0000
  O   O1        1.0  0.43406933510186013  0.505731274058789  0.873603994699394  1.0000
  O   O2        1.0  0.9340816017407434  0.9942684269498373  0.1263956289645449  1.0000
  O   O3        1.0  0.5659176117217085  0.4942674257763288  0.1263899626439979  1.0000
  O   O4        1.0  0.0659184617859978  0.005736685970120401  0.8736141123664752  1.0000
  O   O5        1.0  0.2294100087174726  0.306316039599217  0.8982398309935817  1.0000
  O   O6        1.0  0.7294157743672686  0.19367677602135563  0.10176408460544202  1.0000
  O   O7        1.0  0.7705840926381669  0.6936761842448291  0.1017576268062115  1.0000
  O   O8        1.0  0.27057951949539927  0.8063209559901241  0.8982434586457799  1.0000
  O   O9        1.0  0.5570620157384026  0.2927952952438416  0.9450678679085058  1.0000
  O   O10       1.0  0.05706313366796681  0.20720421990856866  0.0549333442603839  1.0000
  O   O11       1.0  0.442929700861761  0.7071987515552536  0.05493696926814099  1.0000
  O   O12       1.0  0.9429202358786953  0.7927963369492376  0.9450575467651703  1.0000
  O   O13       1.0  0.4110394227584281  0.09083313465011139  0.8317530985996058  1.0000
  O   O14       1.0  0.9110433395493516  0.40915666467812867  0.16825309929182447  1.0000
  O   O15       1.0  0.5889475243170281  0.909139642896264  0.1682604850372513  1.0000
  O   O16       1.0  0.0889221437565126  0.5908577464690978  0.8317372927991045  1.0000
  O   O17       1.0  0.309646124533657  0.9969093028358101  0.6581421933954132  1.0000
  O   O18       1.0  0.8096468330724633  0.5030720815126202  0.3418604123900267  1.0000
  O   O19       1.0  0.6903658631845885  0.0030561068847064004  0.34186517472846123  1.0000
  O   O20       1.0  0.19035442274026346  0.4969515308551992  0.6581403608283978  1.0000
  O   O21       1.0  0.588857613424672  0.9659816991976978  0.7119422932026254  1.0000
  O   O22       1.0  0.08885346366567151  0.5340202830348559  0.2880630849150236  1.0000
  O   O23       1.0  0.4111519896044414  0.03400027957807342  0.288081671500322  1.0000
  O   O24       1.0  0.9111322904393901  0.4660071246202336  0.7119066466776758  1.0000
  O   O25       1.0  0.1149754376371703  0.5802640067362504  0.04173620075612659  1.0000
  O   O26       1.0  0.614981255656609  0.9197342735512634  0.9582610912646885  1.0000
  O   O27       1.0  0.8850091243284338  0.41972455024310323  0.9582529263393552  1.0000
  O   O28       1.0  0.38501523065724547  0.08026713843315748  0.041750765079037  1.0000
  O   O29       1.0  0.2863649721486752  0.38896544218386  0.1512656567267783  1.0000
  O   O30       1.0  0.7863673438134597  0.11104300826578847  0.8487352269191177  1.0000
  O   O31       1.0  0.7136231671342516  0.6110295514714679  0.8487320226807497  1.0000
  O   O32       1.0  0.21363629695915887  0.8889584115754018  0.1512742189144589  1.0000
