data_image0
_chemical_formula_structural       Zn8H32C22N32O18
_chemical_formula_sum              "Zn8 H32 C22 N32 O18"
_cell_length_a       9.131536385817945
_cell_length_b       9.578624779893959
_cell_length_c       17.56316981995477
_cell_angle_alpha    94.42120794614793
_cell_angle_beta     105.04014017584427
_cell_angle_gamma    89.99498329655847

_space_group_name_H-M_alt    "P 1"
_space_group_IT_number       1

loop_
  _space_group_symop_operation_xyz
  'x, y, z'

loop_
  _atom_site_type_symbol
  _atom_site_label
  _atom_site_symmetry_multiplicity
  _atom_site_fract_x
  _atom_site_fract_y
  _atom_site_fract_z
  _atom_site_occupancy
  Zn  Zn1       1.0  0.621193869142772  0.23654776346003095  0.8346697674517214  1.0000
  Zn  Zn2       1.0  0.7864816811524022  0.2633502807520784  0.1652756701557934  1.0000
  Zn  Zn3       1.0  0.37880470564607555  0.7634500673983168  0.16532868542902426  1.0000
  Zn  Zn4       1.0  0.21351698803953673  0.736651736084326  0.8347246819932153  1.0000
  Zn  Zn5       1.0  0.620873782809447  0.44522383316546404  0.658914119933186  1.0000
  Zn  Zn6       1.0  0.9617223956952117  0.054832292105807305  0.3410911643257463  1.0000
  Zn  Zn7       1.0  0.37913279634958746  0.5547771215066603  0.3410935183712311  1.0000
  Zn  Zn8       1.0  0.038280927867838  0.945174957683804  0.658911178202537  1.0000
  H   H1        1.0  0.4536691306433981  0.3612390335580287  0.9443739855788136  1.0000
  H   H2        1.0  0.509743354743115  0.13870736622689608  0.055647529473027556  1.0000
  H   H3        1.0  0.5463294915182928  0.638760890846676  0.055625132296128775  1.0000
  H   H4        1.0  0.4902552905911008  0.8612936032790018  0.9443527748188172  1.0000
  H   H5        1.0  0.3453778580405854  0.5087173694515457  0.9477973089754881  1.0000
  H   H6        1.0  0.3979579805787239  0.9912476659699861  0.05224140921009726  1.0000
  H   H7        1.0  0.6546208111513536  0.4912846473848588  0.05220304317352739  1.0000
  H   H8        1.0  0.602049619743049  0.008748072860605296  0.9477553266243672  1.0000
  H   H9        1.0  0.9708576568575682  0.9435196736442463  0.8227126818720052  1.0000
  H   H10       1.0  0.148044707710099  0.5564913702356405  0.177154765571693  1.0000
  H   H11       1.0  0.029145501071809615  0.05648024929044479  0.17728704853664815  1.0000
  H   H12       1.0  0.8519539638800638  0.4435106544033758  0.8228416016182221  1.0000
  H   H13       1.0  0.8903973113514214  0.06433892902489897  0.8786293175337077  1.0000
  H   H14       1.0  0.0118705720742511  0.4356177427808916  0.12121904148597908  1.0000
  H   H15       1.0  0.10960017755355983  0.9356609979766262  0.12136850864806797  1.0000
  H   H16       1.0  0.9881269642035734  0.5643842777669972  0.8787794496899932  1.0000
  H   H17       1.0  0.3937114553435635  0.6724443732718727  0.7068213369206829  1.0000
  H   H18       1.0  0.6867083413762529  0.8275642570140674  0.2933117297786083  1.0000
  H   H19       1.0  0.6062836225312155  0.32754927048161153  0.2931758958512559  1.0000
  H   H20       1.0  0.31328697336277145  0.17243985447120738  0.7066888279643279  1.0000
  H   H21       1.0  0.8166178215861779  0.20137429604481838  0.589531664404191  1.0000
  H   H22       1.0  0.2263754854056117  0.2989131221101786  0.41043040723971547  1.0000
  H   H23       1.0  0.18338424908892392  0.7986277185744157  0.41046971642496993  1.0000
  H   H24       1.0  0.7736244377020824  0.7010941332405807  0.5895691987687997  1.0000
  H   H25       1.0  0.28018382272866665  0.2127002158358167  0.5849619960539485  1.0000
  H   H26       1.0  0.694855461195246  0.2872719491109165  0.41491995329801057  1.0000
  H   H27       1.0  0.7198136869506159  0.7873007484642898  0.41504100150383033  1.0000
  H   H28       1.0  0.3051454530506207  0.7127290230039447  0.5850789494210815  1.0000
  H   H29       1.0  0.44119395392059607  0.1982992690851475  0.5719761221951599  1.0000
  H   H30       1.0  0.8688752317842728  0.3013049572181004  0.42800926368900594  1.0000
  H   H31       1.0  0.5588024733008438  0.8017038025047256  0.4280205558649327  1.0000
  H   H32       1.0  0.1311268392334313  0.6986970585157903  0.5719915478602857  1.0000
  C   C1        1.0  0.4183388331979502  0.47899569028603384  0.8497848309393133  1.0000
  C   C2        1.0  0.5688755660320696  0.020835146281463303  0.15022319807719947  1.0000
  C   C3        1.0  0.5816586301362889  0.5210031838116934  0.1502157937846533  1.0000
  C   C4        1.0  0.43112650669864655  0.9791668750257188  0.8497747670727378  1.0000
  C   C5        1.0  0.41950610742625133  0.5947725545314524  0.7498847104604633  1.0000
  C   C6        1.0  0.6696181262240444  0.9051163005985996  0.25017136676959234  1.0000
  C   C7        1.0  0.5804902468516034  0.40522737060826597  0.25011410114762356  1.0000
  C   C8        1.0  0.33038061419847514  0.09488885711467532  0.7498296982307834  1.0000
  C   C9        1.0  0.8513551187158299  0.10060428612319328  0.762495553487909  1.0000
  C   C10       1.0  0.0885865225222275  0.3995008827823341  0.2373958320930001  1.0000
  C   C11       1.0  0.14864355047610903  0.8993977307132112  0.23750479866110646  1.0000
  C   C12       1.0  0.911410989897881  0.600500090435041  0.7626026112258086  1.0000
  C   C13       1.0  0.8121819777019186  0.18320970568003497  0.6491132932424006  1.0000
  C   C14       1.0  0.1624930985018551  0.3170043374189716  0.3508191665573647  1.0000
  C   C15       1.0  0.1878201192291229  0.8167933640723177  0.35088415048482346  1.0000
  C   C16       1.0  0.8375068004055211  0.6830018694866168  0.6491809608738563  1.0000
  C   C17       1.0  0.7417913208984999  0.2499161771088652  0.9999720941855228  1.0000
  C   C18       1.0  0.25820250477354284  0.7500722337035554  2.3038327555027924e-05  1.0000
  C   C19       1.0  0.4506751783603847  0.5592232369877692  0.5118020423656588  1.0000
  C   C20       1.0  0.9389054132516395  0.9407828718454567  0.48822153571386906  1.0000
  C   C21       1.0  0.5493315037668084  0.4407819315288818  0.4881932632102418  1.0000
  C   C22       1.0  0.06109523513320881  0.059206568487226684  0.5117825333751256  1.0000
  N   N1        1.0  0.5136273087641359  0.4148693295725607  0.8120189287782721  1.0000
  N   N2        1.0  0.7018030711153784  0.08497924039550499  0.18802588096469458  1.0000
  N   N3        1.0  0.48637473771064077  0.5851316366015097  0.18798297347359486  1.0000
  N   N4        1.0  0.29819673201848224  0.9150227760733927  0.8119746243177416  1.0000
  N   N5        1.0  0.5118242574026156  0.4895158463703807  0.7469990920045646  1.0000
  N   N6        1.0  0.7648086138901178  0.010370919165424696  0.2530710413470984  1.0000
  N   N7        1.0  0.4881777655570332  0.5104840735878327  0.25300219311026945  1.0000
  N   N8        1.0  0.23518551816373193  0.9896310946823589  0.7469309753876985  1.0000
  N   N9        1.0  0.3579108328259651  0.5931119851781688  0.8124132775775194  1.0000
  N   N10       1.0  0.5456679104913179  0.9067649663565052  0.18760781018908548  1.0000
  N   N11       1.0  0.6420843397945148  0.4068858456680288  0.18758528518281983  1.0000
  N   N12       1.0  0.4543318452696923  0.09323495656604307  0.8123920300991541  1.0000
  N   N13       1.0  0.3821719311842031  0.43310941693820826  0.9138065572963682  1.0000
  N   N14       1.0  0.46884862281977047  0.06674004229734719  0.08619028586394249  1.0000
  N   N15       1.0  0.6178278249194165  0.5668905070989965  0.08619271371200196  1.0000
  N   N16       1.0  0.531153306764594  0.9332556950267872  0.9138073921430061  1.0000
  N   N17       1.0  0.7530880422919496  0.2059167589710498  0.7611547404574921  1.0000
  N   N18       1.0  0.9917168251998023  0.29417072857174986  0.2387527666590188  1.0000
  N   N19       1.0  0.24691400452542925  0.7940842083176703  0.23884659251450552  1.0000
  N   N20       1.0  0.008284136418915  0.7058323370894755  0.7612468010542698  1.0000
  N   N21       1.0  0.728387776164375  0.25823324824010285  0.6877185504665418  1.0000
  N   N22       1.0  0.0402789107540826  0.24190406845531948  0.31220751334974745  1.0000
  N   N23       1.0  0.2716154758254916  0.7417708595579882  0.3122836484902506  1.0000
  N   N24       1.0  0.9597209881532865  0.758102138450276  0.6877926140814734  1.0000
  N   N25       1.0  0.8909194975032905  0.0835456579791156  0.6929483135660347  1.0000
  N   N26       1.0  0.19752775430855246  0.4166207603573752  0.3069772645043186  1.0000
  N   N27       1.0  0.10908030597317261  0.916456359604446  0.307051622436532  1.0000
  N   N28       1.0  0.802470987826979  0.583384402929191  0.6930209540967026  1.0000
  N   N29       1.0  0.8969037993975206  0.0215236423477805  0.8247686425609189  1.0000
  N   N30       1.0  0.07206669919042952  0.47847302647674883  0.175087274990247  1.0000
  N   N31       1.0  0.1030993588744593  0.9784762817015672  0.17523051856785088  1.0000
  N   N32       1.0  0.9279319720571308  0.5215289970476105  0.8249096614795375  1.0000
  O   O1        1.0  0.7827346869968467  0.23160389809718399  0.9340672902130933  1.0000
  O   O2        1.0  0.8486756910399436  0.26803579445522974  0.0658291674501257  1.0000
  O   O3        1.0  0.21725764344135715  0.7683687919785384  0.06593266410780528  1.0000
  O   O4        1.0  0.1513116619053108  0.7319672711574013  0.9341708397815294  1.0000
  O   O5        1.0  0.6006396645567451  0.25012811693018483  2.0899911817233223e-05  1.0000
  O   O6        1.0  0.3993477395299864  0.7498770544900494  0.9999735102354561  1.0000
  O   O7        1.0  0.4665045038901711  0.5898279117786486  0.5851684489470301  1.0000
  O   O8        1.0  0.8812905321588503  0.9101900624456933  0.4148830800140927  1.0000
  O   O9        1.0  0.5335135132024009  0.41017723857239463  0.414835788601465  1.0000
  O   O10       1.0  0.1186977642091236  0.0898046252700269  0.5851161282138051  1.0000
  O   O11       1.0  0.36108641266874025  0.6175475205918417  0.45651334150490896  1.0000
  O   O12       1.0  0.9047690772691794  0.8823800007565764  0.5435516542738057  1.0000
  O   O13       1.0  0.6389222919129836  0.3824471515915419  0.5434931773636293  1.0000
  O   O14       1.0  0.09523748077295122  0.11761991550230988  0.4564513819344781  1.0000
  O   O15       1.0  0.3770098670450609  0.264584477355548  0.5921584838593361  1.0000
  O   O16       1.0  0.7844432066441912  0.23513648807504944  0.40783376756631634  1.0000
  O   O17       1.0  0.6229931173707827  0.7354080930870666  0.4078517278667134  1.0000
  O   O18       1.0  0.21556217008316741  0.76486133500498  0.5921684505143361  1.0000
