data_image0
_chemical_formula_structural       Zn2H18C36N2O12
_chemical_formula_sum              "Zn2 H18 C36 N2 O12"
_cell_length_a       11.806025060138575
_cell_length_b       13.156648065525237
_cell_length_c       13.159045116400632
_cell_angle_alpha    88.52135434574001
_cell_angle_beta     85.90000996298193
_cell_angle_gamma    85.17107535156079

_space_group_name_H-M_alt    "P 1"
_space_group_IT_number       1

loop_
  _space_group_symop_operation_xyz
  'x, y, z'

loop_
  _atom_site_type_symbol
  _atom_site_label
  _atom_site_symmetry_multiplicity
  _atom_site_fract_x
  _atom_site_fract_y
  _atom_site_fract_z
  _atom_site_occupancy
  Zn  Zn1       1.0  0.38111971856295657  0.4987880703989587  0.4963963864346539  1.0000
  Zn  Zn2       1.0  0.6188851887942801  0.501214302446442  0.5036091696059444  1.0000
  H   H1        1.0  0.17109205271562897  0.5937223607733416  0.588522778592278  1.0000
  H   H2        1.0  0.7254204804842247  0.4834785671659744  0.17297736078334944  1.0000
  H   H3        1.0  0.7132695346308396  0.1696729843571347  0.5518153139899908  1.0000
  H   H4        1.0  0.28673869714965144  0.8303211013150573  0.4481674076239415  1.0000
  H   H5        1.0  0.9614374278366566  0.6527022723941087  0.6451412336613842  1.0000
  H   H6        1.0  0.03856810512005638  0.3473031601672573  0.3548611851843617  1.0000
  H   H7        1.0  0.24519385645535138  0.3683441072477791  0.3739151630168749  1.0000
  H   H8        1.0  0.7548108941253985  0.6316605806662069  0.6260857972152323  1.0000
  H   H9        1.0  0.8289113383098864  0.40627774667311917  0.4114821524286612  1.0000
  H   H10       1.0  0.6394377806225577  0.48454261180646085  0.8201350854657151  1.0000
  H   H11       1.0  0.3605566643060597  0.5154850469198421  0.1798675588730063  1.0000
  H   H12       1.0  0.3706687624936648  0.18190003120849954  0.46108056148505483  1.0000
  H   H13       1.0  0.629334809190354  0.8181092785675474  0.5389142987519833  1.0000
  H   H14       1.0  0.839699795334944  0.4699418476224295  0.035149765966409105  1.0000
  H   H15       1.0  0.16029637134077024  0.5301071336557894  0.9648523572176232  1.0000
  H   H16       1.0  0.18292357509164955  0.9695832481224256  0.41128036647740635  1.0000
  H   H17       1.0  0.8170807433271675  0.030406280818141302  0.5887072378050107  1.0000
  H   H18       1.0  0.27457573140466707  0.5165589761778904  0.8270257441066633  1.0000
  C   C1        1.0  0.5346982928712264  0.3008793747086927  0.5019845888644525  1.0000
  C   C2        1.0  0.018424489608584275  0.5356586936339482  0.5339744530954178  1.0000
  C   C3        1.0  0.981581283092417  0.46434368748656146  0.46602801132324606  1.0000
  C   C4        1.0  0.8224022766841655  0.586258818520072  0.5831574733268637  1.0000
  C   C5        1.0  0.17760173226358938  0.4137443398130359  0.41684584104216066  1.0000
  C   C6        1.0  0.9358180611507972  0.5972297126269409  0.5930113125536921  1.0000
  C   C7        1.0  0.06418674552740807  0.40277420801217545  0.40699041934311  1.0000
  C   C8        1.0  0.4653116022267552  0.6991244763853358  0.4980191206303957  1.0000
  C   C9        1.0  0.8628363391144233  0.4591854905169867  0.4618315507442858  1.0000
  C   C10       1.0  0.13716771825353644  0.5408168917119341  0.5381740558323713  1.0000
  C   C11       1.0  0.45837022735810945  0.5006041042225533  0.812946402150871  1.0000
  C   C12       1.0  0.5416199484310268  0.49942357934805404  0.187060296225475  1.0000
  C   C13       1.0  0.5410459561546758  0.1864023754250397  0.5054389992508916  1.0000
  C   C14       1.0  0.45896259622443836  0.813597746354809  0.4945534642102203  1.0000
  C   C15       1.0  0.4665804522641678  0.498736483383297  0.6985689224887607  1.0000
  C   C16       1.0  0.6564176591326569  0.48707450426564947  0.02569582895922199  1.0000
  C   C17       1.0  0.3435735050794121  0.5129623236898053  0.9743091110833078  1.0000
  C   C18       1.0  0.35369937495905646  0.9766610080824732  0.4596317643942669  1.0000
  C   C19       1.0  0.6463092426766223  0.023339188746547303  0.5403477744518952  1.0000
  C   C20       1.0  0.53341571482445  0.5012796921536662  0.3014391641126224  1.0000
  C   C21       1.0  0.6482056286392321  0.48924664254214173  0.13142522362979747  1.0000
  C   C22       1.0  0.3517898761642612  0.5107894109527606  0.8685733929539339  1.0000
  C   C23       1.0  0.35953484080739156  0.8708312798867653  0.4663584933303682  1.0000
  C   C24       1.0  0.6404763560232138  0.1291680906142219  0.5336269874725801  1.0000
  C   C25       1.0  0.4423881461722272  0.5074275281108102  0.13617820695134952  1.0000
  C   C26       1.0  0.5576045719074896  0.4926001184799275  0.8638298603597576  1.0000
  C   C27       1.0  0.552650699673137  0.8629025041774766  0.5179490912702036  1.0000
  C   C28       1.0  0.44735417610024786  0.1371014959254637  0.48203895574018674  1.0000
  C   C29       1.0  0.4456498854093382  0.5051900342589875  0.028594051589117004  1.0000
  C   C30       1.0  0.5543460082376795  0.4948406438971559  0.9714107269189611  1.0000
  C   C31       1.0  0.5503946476099485  0.9705952642569287  0.515113973579524  1.0000
  C   C32       1.0  0.44960881399262564  0.0294057561480798  0.4848650968182895  1.0000
  C   C33       1.0  0.773895121200951  0.47763966599622165  0.9775779226111254  1.0000
  C   C34       1.0  0.22609957435622613  0.5223956119486958  0.0224245572592281  1.0000
  C   C35       1.0  0.24574138695082573  0.026141196463207495  0.42481941223571346  1.0000
  C   C36       1.0  0.754264463154193  0.9738506155349357  0.5751657759804942  1.0000
  N   N1        1.0  0.21247215424246949  0.48232957002993254  0.4818463894740646  1.0000
  N   N2        1.0  0.7875319630615606  0.5176720493387776  0.5181592284958185  1.0000
  O   O1        1.0  0.43559512229047204  0.3463195616883467  0.4981872646876583  1.0000
  O   O2        1.0  0.37221853356542306  0.6571263544006027  0.4965532413955813  1.0000
  O   O3        1.0  0.37396446052444077  0.5011955843488494  0.6541568716236129  1.0000
  O   O4        1.0  0.6260324782745528  0.4988328135017569  0.3458448494422228  1.0000
  O   O5        1.0  0.6277917456625913  0.3428737795148038  0.5034337990931377  1.0000
  O   O6        1.0  0.8038747310927119  0.4780424867924893  0.8862750156280299  1.0000
  O   O7        1.0  0.1961146514361828  0.5219737814712602  0.11373043417595602  1.0000
  O   O8        1.0  0.22052896810123457  0.11755817314118393  0.40979748626015317  1.0000
  O   O9        1.0  0.5644120884879413  0.6536841630432378  0.501843205916721  1.0000
  O   O10       1.0  0.779467966397149  0.8824390771283106  0.5901873672925646  1.0000
  O   O11       1.0  0.5666100508381929  0.49497983762355346  0.65535988773766  1.0000
  O   O12       1.0  0.4333938235145211  0.5050141713558461  0.344644374157653  1.0000
