data_image0
_chemical_formula_structural       Cu4H28C36S8N12
_chemical_formula_sum              "Cu4 H28 C36 S8 N12"
_cell_length_a       10.245778369938487
_cell_length_b       10.24582697094126
_cell_length_c       10.382486362301533
_cell_angle_alpha    94.13146316476234
_cell_angle_beta     94.13098370951528
_cell_angle_gamma    111.09368426223179

_space_group_name_H-M_alt    "P 1"
_space_group_IT_number       1

loop_
  _space_group_symop_operation_xyz
  'x, y, z'

loop_
  _atom_site_type_symbol
  _atom_site_label
  _atom_site_symmetry_multiplicity
  _atom_site_fract_x
  _atom_site_fract_y
  _atom_site_fract_z
  _atom_site_occupancy
  Cu  Cu1       1.0  0.8600256458362382  0.13997578633867389  0.7499998335947282  1.0000
  Cu  Cu2       1.0  0.13997626764633953  0.8600225918351682  0.2500017774808256  1.0000
  Cu  Cu3       1.0  0.030557990292557173  0.9694327217667792  0.7499987789983322  1.0000
  Cu  Cu4       1.0  0.9694351398231403  0.0305656933993106  0.2499983356523856  1.0000
  H   H1        1.0  0.7162729820005184  0.6462252689587231  0.6426744104105921  1.0000
  H   H2        1.0  0.35377675391772095  0.2837277673506619  0.8573242083361804  1.0000
  H   H3        1.0  0.2837289157025537  0.3537730934480691  0.3573310510243459  1.0000
  H   H4        1.0  0.6462236279385536  0.7162717029549839  0.14266870186382616  1.0000
  H   H5        1.0  0.6920305798721884  0.8739315572502732  0.5798158243455944  1.0000
  H   H6        1.0  0.12607081489382208  0.30796749236119325  0.9201875653244115  1.0000
  H   H7        1.0  0.3079666282749116  0.12606998694963067  0.4201866366189577  1.0000
  H   H8        1.0  0.8739293302469519  0.6920340487054091  0.07981414840544687  1.0000
  H   H9        1.0  0.49064585345183787  0.6761621139592718  0.6725474766136655  1.0000
  H   H10       1.0  0.32383819254623347  0.5093517805030884  0.8274509285462841  1.0000
  H   H11       1.0  0.509354485010789  0.3238373129869885  0.3274560220746352  1.0000
  H   H12       1.0  0.6761631591032182  0.49064767956068056  0.17254397861846368  1.0000
  H   H13       1.0  0.8546798118553837  0.5658852575977845  0.48043689062868106  1.0000
  H   H14       1.0  0.434115359576893  0.14532144389725937  0.0195654967227412  1.0000
  H   H15       1.0  0.14531933982295436  0.4341162700601231  0.5195686016755089  1.0000
  H   H16       1.0  0.5658849946652394  0.8546779988160437  0.9804341516061754  1.0000
  H   H17       1.0  0.7648848306828951  0.4123289879361422  0.3691950403855344  1.0000
  H   H18       1.0  0.5876704578086135  0.23511758762661827  0.1308061074032381  1.0000
  H   H19       1.0  0.23511609328212288  0.5876693807707624  0.6308093866745068  1.0000
  H   H20       1.0  0.4123310650853824  0.7648850148461435  0.8691928963452895  1.0000
  H   H21       1.0  0.5708564684679018  0.8148582281761205  0.3530836271465673  1.0000
  H   H22       1.0  0.1851453821228687  0.4291464040055572  0.14691947731080288  1.0000
  H   H23       1.0  0.4291403333111036  0.18514752455565286  0.6469200768503356  1.0000
  H   H24       1.0  0.8148563136076277  0.570864621056124  0.8530801591077974  1.0000
  H   H25       1.0  0.5585431221275529  0.019644112214287204  0.23344512448294807  1.0000
  H   H26       1.0  0.9803569808312317  0.44146249042411506  0.2665555737968788  1.0000
  H   H27       1.0  0.44145856806611755  0.9803616287257172  0.7665589384392177  1.0000
  H   H28       1.0  0.019643165901491937  0.5585443308224  0.7334426760192656  1.0000
  C   C1        1.0  0.6213485795332119  0.5815994959104955  0.5797867018234939  1.0000
  C   C2        1.0  0.418402855394035  0.37865048415432073  0.9202100217116751  1.0000
  C   C3        1.0  0.37865059422242797  0.41839677521807056  0.42021647885534463  1.0000
  C   C4        1.0  0.5816000673304913  0.6213479231952659  0.07978396043017709  1.0000
  C   C5        1.0  0.8289026419393719  0.9499754746496833  0.9757023648856062  1.0000
  C   C6        1.0  0.05002696472786989  0.1710954417192028  0.5242920989813626  1.0000
  C   C7        1.0  0.17109795531606412  0.050016625006271895  0.024290018647484098  1.0000
  C   C8        1.0  0.94997343526083  0.828898768115337  0.4756994621831366  1.0000
  C   C9        1.0  0.729922463808208  0.1909049894412291  0.5071683207216608  1.0000
  C   C10       1.0  0.8090949800195304  0.2700767233704866  0.9928328196354314  1.0000
  C   C11       1.0  0.2700786550706196  0.8090965453252534  0.49283442738310157  1.0000
  C   C12       1.0  0.19090342120966133  0.7299174478213786  0.007169186447264101  1.0000
  C   C13       1.0  0.6834772866304633  0.9560330108090085  0.5226840208098122  1.0000
  C   C14       1.0  0.04396993934584966  0.31652359198284324  0.9773171205052407  1.0000
  C   C15       1.0  0.3165189477785759  0.04396853969100789  0.4773174057798428  1.0000
  C   C16       1.0  0.9560302136846771  0.6834779569672804  0.02268266804493628  1.0000
  C   C17       1.0  0.4945388546898285  0.5985180254524352  0.5970175093489231  1.0000
  C   C18       1.0  0.40148083744459484  0.5054582224419945  0.9029803959563125  1.0000
  C   C19       1.0  0.5054589373677132  0.4014771803282002  0.4029893439010905  1.0000
  C   C20       1.0  0.5985187758301079  0.4945391518687146  0.09701037705769981  1.0000
  C   C21       1.0  0.7656292845573559  0.4650260591975196  0.4651855592080948  1.0000
  C   C22       1.0  0.5349746138937234  0.23437259168294836  0.03481490052133298  1.0000
  C   C23       1.0  0.23437046445800283  0.5349744220463251  0.5348179736983099  1.0000
  C   C24       1.0  0.465025748238169  0.7656268589138833  0.965182822627895  1.0000
  C   C25       1.0  0.6288283556801346  0.4830575264600653  0.4824930035836204  1.0000
  C   C26       1.0  0.516942078399083  0.3711714772263761  0.0175088598858792  1.0000
  C   C27       1.0  0.37117081018575243  0.5169387367849722  0.5175121022749138  1.0000
  C   C28       1.0  0.4830606352240779  0.6288290284765027  0.9824871876569149  1.0000
  C   C29       1.0  0.6166882629160992  0.9232677959127924  0.3969771551542961  1.0000
  C   C30       1.0  0.07673476839481447  0.3833149037270402  0.10302423825472568  1.0000
  C   C31       1.0  0.3833073741559189  0.07673480100128671  0.6030262308331515  1.0000
  C   C32       1.0  0.9232677298291917  0.6166929726255217  0.8969723359549846  1.0000
  C   C33       1.0  0.6106804020348875  0.0355893519776345  0.331899081264396  1.0000
  C   C34       1.0  0.9644114961186786  0.3893226250712302  0.16810221533676636  1.0000
  C   C35       1.0  0.3893189563918822  0.9644153535651366  0.6681018443149752  1.0000
  C   C36       1.0  0.03558845175535903  0.6106810261739425  0.8318986760245083  1.0000
  S   S1        1.0  0.7902219285356934  0.9054832093105034  0.8193038171759  1.0000
  S   S2        1.0  0.09451567622611627  0.20977127918036587  0.6806948169465841  1.0000
  S   S3        1.0  0.20977199618376827  0.09451204926293849  0.1806921604456164  1.0000
  S   S4        1.0  0.9054839133793279  0.7902260714797648  0.3193017316064939  1.0000
  S   S5        1.0  0.8109875163771462  0.36098097170822285  0.5848266705279386  1.0000
  S   S6        1.0  0.6390201398000529  0.189012886564548  0.915174065141528  1.0000
  S   S7        1.0  0.18901750928853278  0.6390205496830745  0.4151773273068642  1.0000
  S   S8        1.0  0.36098061686529787  0.8109823436751212  0.08482530274488195  1.0000
  N   N1        1.0  0.8586867992375459  0.9845480792479718  0.08842505569726455  1.0000
  N   N2        1.0  0.01545483137164888  0.1413116275331774  0.41157426960916155  1.0000
  N   N3        1.0  0.1413149469453643  0.0154471604586348  0.911571496204658  1.0000
  N   N4        1.0  0.9845408419652344  0.8586804484386974  0.5884264183072858  1.0000
  N   N5        1.0  0.739869039719082  0.08905028702793767  0.5804119644713664  1.0000
  N   N6        1.0  0.9109507829901277  0.260130607583541  0.9195897704263629  1.0000
  N   N7        1.0  0.2601307132411534  0.9109501981576643  0.419590605845194  1.0000
  N   N8        1.0  0.08904703668154912  0.7398646257894298  0.08041034469474079  1.0000
  N   N9        1.0  0.6668177841699716  0.16871504771260248  0.3864580977727598  1.0000
  N   N10       1.0  0.8312861686387762  0.3331857116062125  0.11354359337546069  1.0000
  N   N11       1.0  0.33318585744468254  0.8312906845689267  0.6135470713093483  1.0000
  N   N12       1.0  0.16871223023749587  0.6668137358238013  0.8864559113833578  1.0000
