data_image0
_chemical_formula_structural       V2H8C12N2Cl8
_chemical_formula_sum              "V2 H8 C12 N2 Cl8"
_cell_length_a       5.842974242098427
_cell_length_b       9.663081213265194
_cell_length_c       10.073406866987881
_cell_angle_alpha    116.22373835019326
_cell_angle_beta     94.25158055027123
_cell_angle_gamma    105.84047358517857

_space_group_name_H-M_alt    "P 1"
_space_group_IT_number       1

loop_
  _space_group_symop_operation_xyz
  'x, y, z'

loop_
  _atom_site_type_symbol
  _atom_site_label
  _atom_site_symmetry_multiplicity
  _atom_site_fract_x
  _atom_site_fract_y
  _atom_site_fract_z
  _atom_site_occupancy
  V   V1        1.0  0.29219904552534354  0.1130203694268417  0.47121699064020817  1.0000
  V   V2        1.0  0.7077874694136241  0.8869817621714731  0.5287686006480926  1.0000
  H   H1        1.0  0.879206280383208  0.3308282691381806  0.44712910792647165  1.0000
  H   H2        1.0  0.12078991534406912  0.6691764470825419  0.5528729123094892  1.0000
  H   H3        1.0  0.6722842828724113  0.4297775528457494  0.29894022856033337  1.0000
  H   H4        1.0  0.32771598790098716  0.5702283803716314  0.70106050705499  1.0000
  H   H5        1.0  0.0393758414919319  0.23354103803259824  0.939240472801906  1.0000
  H   H6        1.0  0.9606275166875449  0.7664575873248936  0.060763323667401864  1.0000
  H   H7        1.0  0.24733141109623355  0.13439568635372007  0.08725684843928862  1.0000
  H   H8        1.0  0.7526680555814877  0.8656053706987024  0.9127457895808108  1.0000
  C   C1        1.0  0.07302622386225717  0.22434354433859477  0.2752322312943534  1.0000
  C   C2        1.0  0.926975748980496  0.7756489462070846  0.7247689447482915  1.0000
  C   C3        1.0  0.9121207172576078  0.30966662452135557  0.33588115738632507  1.0000
  C   C4        1.0  0.0878792453924645  0.6903319645526125  0.6641184911191618  1.0000
  C   C5        1.0  0.7965876134040145  0.3639395174609065  0.2532489710995592  1.0000
  C   C6        1.0  0.20340983325345255  0.6360676459131654  0.7467531349249726  1.0000
  C   C7        1.0  0.8413064237851201  0.3340629871535085  0.1100026434951644  1.0000
  C   C8        1.0  0.1587064544728349  0.6659307617823985  0.8900015616881306  1.0000
  C   C9        1.0  0.004303794186491013  0.2527885007782943  0.049620219439290764  1.0000
  C   C10       1.0  0.9956940435194923  0.7472124835787642  0.9503733758077717  1.0000
  C   C11       1.0  0.12055808017846202  0.19816209132498133  0.13196881706701905  1.0000
  C   C12       1.0  0.8794425128504811  0.801837717428981  0.8680303765619614  1.0000
  N   N1        1.0  0.17732774546471572  0.16715492613037952  0.3557170842581812  1.0000
  N   N2        1.0  0.822672768943704  0.8328449449705531  0.644290073703509  1.0000
  Cl  Cl1       1.0  0.5664503456059224  0.3547792135168209  0.6323720698242496  1.0000
  Cl  Cl2       1.0  0.43355065494727524  0.6452181973990249  0.36763309416442513  1.0000
  Cl  Cl3       1.0  0.020112738605320066  0.1618751832840246  0.6395522551928964  1.0000
  Cl  Cl4       1.0  0.9798979753982878  0.8381209921084648  0.3604498788983366  1.0000
  Cl  Cl5       1.0  0.4679877227216735  0.0132495476701777  0.6652965486838056  1.0000
  Cl  Cl6       1.0  0.5320144140103125  0.9867466071538405  0.33470417537216696  1.0000
  Cl  Cl7       1.0  0.6930487615833769  0.3990403941531256  0.007035602192729611  1.0000
  Cl  Cl8       1.0  0.3069492793221045  0.600964223308786  0.9929535589013055  1.0000
