data_image0
_chemical_formula_structural       Hg4H44C44N12Cl8
_chemical_formula_sum              "Hg4 H44 C44 N12 Cl8"
_cell_length_a       7.748637721
_cell_length_b       12.088592360534012
_cell_length_c       13.8316
_cell_angle_alpha    92.18489988993942
_cell_angle_beta     90.0
_cell_angle_gamma    90.0

_space_group_name_H-M_alt    "P 1"
_space_group_IT_number       1

loop_
  _space_group_symop_operation_xyz
  'x, y, z'

loop_
  _atom_site_type_symbol
  _atom_site_label
  _atom_site_symmetry_multiplicity
  _atom_site_fract_x
  _atom_site_fract_y
  _atom_site_fract_z
  _atom_site_occupancy
  Hg  Hg1       1.0  0.11800783994866748  0.0075117113212855  0.2587720820373889  1.0000
  Hg  Hg2       1.0  0.6180079870067772  0.49248647002336543  0.24122897798708456  1.0000
  Hg  Hg3       1.0  0.8819911636181172  0.9924879626800447  0.7412287023806597  1.0000
  Hg  Hg4       1.0  0.3819897260105732  0.5075107204939471  0.7587695547344351  1.0000
  H   H1        1.0  0.6101098244905285  0.319977047627475  0.367363005141641  1.0000
  H   H2        1.0  0.11011096798185348  0.18002361720119348  0.13263741465073758  1.0000
  H   H3        1.0  0.3898878885268218  0.6800251098578727  0.6326378620264705  1.0000
  H   H4        1.0  0.8898906166837932  0.8199777124561507  0.8673627019518619  1.0000
  H   H5        1.0  0.3367443535175667  0.1841354389041712  0.3944093730199824  1.0000
  H   H6        1.0  0.8367457911251108  0.3158594311284588  0.105591576671074  1.0000
  H   H7        1.0  0.6632572311480727  0.8158658907531658  0.6055921895469324  1.0000
  H   H8        1.0  0.16325837463939755  0.6841344480768328  0.8944082916813371  1.0000
  H   H9        1.0  0.8366580337638181  0.0550373171131184  0.46618866243784396  1.0000
  H   H10       1.0  0.3366604678045704  0.4449625198875466  0.03381317573549579  1.0000
  H   H11       1.0  0.1633435509018284  0.9449631847162152  0.5338107035992508  1.0000
  H   H12       1.0  0.6633449885093654  0.5550388097697976  0.9661891098135695  1.0000
  H   H13       1.0  0.7664018133026858  0.8858512981603681  0.36141611770398896  1.0000
  H   H14       1.0  0.2663965040468597  0.6141482128416342  0.13858288997661108  1.0000
  H   H15       1.0  0.23359719026409914  0.1141492036689726  0.6385825253509408  1.0000
  H   H16       1.0  0.7335973373222087  0.3858522889877065  0.8614179220247846  1.0000
  H   H17       1.0  0.4763611531348815  0.8733891753665972  0.2830395429769794  1.0000
  H   H18       1.0  0.976357428544695  0.6266086799793911  0.2169586865547544  1.0000
  H   H19       1.0  0.523636559882469  0.126612154290747  0.7169612966077779  1.0000
  H   H20       1.0  0.0236377033737938  0.37338685488191453  0.7830405139822076  1.0000
  H   H21       1.0  0.5237604526278261  0.2503451227785973  0.5534259815986644  1.0000
  H   H22       1.0  0.0237654677674399  0.2496538863940643  0.9465736600448478  1.0000
  H   H23       1.0  0.4762398414883933  0.7496545512227327  0.4465748028193843  1.0000
  H   H24       1.0  0.9762386979970685  0.7503466154352764  0.053425705992239586  1.0000
  H   H25       1.0  0.7479069494104706  0.2252900803662001  0.5412403239414445  1.0000
  H   H26       1.0  0.2479106740006571  0.274709756634465  0.9587600682675796  1.0000
  H   H27       1.0  0.2520946352551761  0.7747120771191476  0.4587605432266669  1.0000
  H   H28       1.0  0.7520947823132857  0.7252882617108583  0.04123993800160259  1.0000
  H   H29       1.0  0.7300741373762278  0.3919128178154736  0.6216938931330773  1.0000
  H   H30       1.0  0.2300791525158488  0.1080878470132021  0.8783072496414588  1.0000
  H   H31       1.0  0.2699300283882735  0.6080893396698741  0.3783084199993495  1.0000
  H   H32       1.0  0.7699185605015089  0.8919109991601246  0.1216927842110778  1.0000
  H   H33       1.0  0.8506604950875596  0.5772163220353121  0.6688699979433109  1.0000
  H   H34       1.0  0.3506616385788845  0.9227831889666902  0.831131178683755  1.0000
  H   H35       1.0  0.14934754232523764  0.4227883189340531  0.3311237221532934  1.0000
  H   H36       1.0  0.6493360744384731  0.0772156572066365  0.1688703011330901  1.0000
  H   H37       1.0  0.8940707062900228  0.7175563481401284  0.5420472621911897  1.0000
  H   H38       1.0  0.3940679781330587  0.782443162861874  0.9579539144358833  1.0000
  H   H39       1.0  0.105932168925051  0.2824441536892124  0.45794559700648557  1.0000
  H   H40       1.0  0.6059297348842989  0.2175573389674668  0.04204762054767739  1.0000
  H   H41       1.0  0.7899336916231618  0.6705986323600185  0.37337325127204213  1.0000
  H   H42       1.0  0.28992967291676297  0.8294017064699801  0.1266272299562274  1.0000
  H   H43       1.0  0.2100627308447613  0.329401869469315  0.6266210538899486  1.0000
  H   H44       1.0  0.7100667495511601  0.1705971397033466  0.8733742498606246  1.0000
  C   C1        1.0  0.4352545726663237  0.1196219746128762  0.3903091687918802  1.0000
  C   C2        1.0  0.9352547197244334  0.3803753789037714  0.10969041768492359  1.0000
  C   C3        1.0  0.5647483025487574  0.8803801828724716  0.6096909753940737  1.0000
  C   C4        1.0  0.0647468649412133  0.6196226394415518  0.8903088656021011  1.0000
  C   C5        1.0  0.5920227742184279  0.1327480154670013  0.4393967227678885  1.0000
  C   C6        1.0  0.0920252082591873  0.36725182153366376  0.06060511540545119  1.0000
  C   C7        1.0  0.4079788104472186  0.8672533141903358  0.5606041168168687  1.0000
  C   C8        1.0  0.9079789575053212  0.632748680295677  0.9393964195781094  1.0000
  C   C9        1.0  0.7126297807206541  0.0472400051299573  0.4293271601553172  1.0000
  C   C10       1.0  0.21262963366254434  0.4527606596987113  0.0706739826192191  1.0000
  C   C11       1.0  0.28737051339556524  0.9527621523553904  0.5706729840306365  1.0000
  C   C12       1.0  0.787370660453675  0.5472406699586259  0.929326856965538  1.0000
  C   C13       1.0  0.6734822542879826  0.9529773876367997  0.37214347158806754  1.0000
  C   C14       1.0  0.1734808166804456  0.547022951193199  0.12785773262235267  1.0000
  C   C15       1.0  0.3265180398282296  0.04702476984854799  0.6278559496157285  1.0000
  C   C16       1.0  0.826516896336905  0.4529783784641451  0.872143829944555  1.0000
  C   C17       1.0  0.5135315578396202  0.9465716545307714  0.3267349710080723  1.0000
  C   C18       1.0  0.013528829682655896  0.5534262008152169  0.1732654274701346  1.0000
  C   C19       1.0  0.4864674457271575  0.0534288472985622  0.6732658409933306  1.0000
  C   C20       1.0  0.9864688833347017  0.4465718175301063  0.8267353017812054  1.0000
  C   C21       1.0  0.6282226857512397  0.2364376122873466  0.499842913243043  1.0000
  C   C22       1.0  0.1282264103414263  0.2635638803693325  0.00015753413268980007  1.0000
  C   C23       1.0  0.3717776083649724  0.763564545198001  0.500158676907226  1.0000
  C   C24       1.0  0.8717777554230821  0.7364366214600082  0.9998418319043977  1.0000
  C   C25       1.0  0.7006767118929531  0.431511970455297  0.4702298615731877  1.0000
  C   C26       1.0  0.2006778553842778  0.0684878665453752  0.029770530635836692  1.0000
  C   C27       1.0  0.2993210011243974  0.5684893592020472  0.5297688090650965  1.0000
  C   C28       1.0  0.7993185670836453  0.9315109796279514  0.9702302261988578  1.0000
  C   C29       1.0  0.7465609063541905  0.45492542993292057  0.568238087988277  1.0000
  C   C30       1.0  0.24656204984550806  0.045075234895755  0.9317630547862591  1.0000
  C   C31       1.0  0.2534419688608907  0.5450767275524271  0.4317606102333683  1.0000
  C   C32       1.0  0.7534343726224151  0.9549236112775716  0.068238425030593  1.0000
  C   C33       1.0  0.814522529927423  0.5577275951314391  0.5939638562780728  1.0000
  C   C34       1.0  0.314521092319886  0.9422727436985667  0.9060366249501967  1.0000
  C   C35       1.0  0.18548550748537446  0.4422737345259051  0.4060326454137382  1.0000
  C   C36       1.0  0.6854766206974643  0.057726930302763386  0.093964159467852  1.0000
  C   C37       1.0  0.8358785419076398  0.6375078634989038  0.5238323033169436  1.0000
  C   C38       1.0  0.3358796853989573  0.8624933031591056  0.9761696514589957  1.0000
  C   C39       1.0  0.16411788056028334  0.36249346615844047  0.47616564433918995  1.0000
  C   C40       1.0  0.664121899266682  0.1375063708422246  0.023831132959052998  1.0000
  C   C41       1.0  0.7810547115395321  0.6110380630252266  0.43061465941354976  1.0000
  C   C42       1.0  0.2810519833825609  0.8889614479767758  0.06938579423135847  1.0000
  C   C43       1.0  0.21894429202725255  0.3889640944601211  0.5693833158259308  1.0000
  C   C44       1.0  0.7189457296347896  0.1110365703685474  0.9306156580021322  1.0000
  N   N1        1.0  0.3970517284169758  0.028819176353088893  0.3358549931045616  1.0000
  N   N2        1.0  0.8970505849256512  0.4711765215075445  0.16414453820553374  1.0000
  N   N3        1.0  0.6029459846003817  0.9711813254762447  0.6641450959146835  1.0000
  N   N4        1.0  0.1029484186411338  0.5288198411817646  0.8358561358790979  1.0000
  N   N5        1.0  0.6435376358460658  0.330850568478823  0.4385175563452818  1.0000
  N   N6        1.0  0.1435387793373906  0.1691500963498527  0.06148214046493909  1.0000
  N   N7        1.0  0.356461367720719  0.6691499333505176  0.5614832556561211  1.0000
  N   N8        1.0  0.8564602242293944  0.830850405479488  0.9385172255721485  1.0000
  N   N9        1.0  0.7140622905887923  0.5115645942365461  0.4040172710395352  1.0000
  N   N10       1.0  0.21406085298125524  0.9884357445934595  0.09598465615304969  1.0000
  N   N11       1.0  0.2859354224285582  0.4884367354207981  0.595981399598756  1.0000
  N   N12       1.0  0.7859381505855296  0.0115622737518635  0.904016796080448  1.0000
  Cl  Cl1       1.0  0.9863785448745475  0.1882075248628894  0.28844814701054833  1.0000
  Cl  Cl2       1.0  0.4863822694647339  0.3117898286537581  0.21155433139488614  1.0000
  Cl  Cl3       1.0  0.0136191681428102  0.8117921491384408  0.711553360389658  1.0000
  Cl  Cl4       1.0  0.513616734102051  0.6882073618635616  0.7884478162374151  1.0000
  Cl  Cl5       1.0  0.0700226310141616  0.8138683417760646  0.29779912060374153  1.0000
  Cl  Cl6       1.0  0.5700240686216986  0.6861303413979272  0.2022020284399773  1.0000
  Cl  Cl7       1.0  0.9299789536514849  0.18613216005327618  0.7022009684155037  1.0000
  Cl  Cl8       1.0  0.4299762254945135  0.3138676769473889  0.7977987008113627  1.0000
