data_image0
_chemical_formula_structural       Cu8H40W2C44S8N12
_chemical_formula_sum              "Cu8 H40 W2 C44 S8 N12"
_cell_length_a       12.088025502992867
_cell_length_b       12.068643629653629
_cell_length_c       12.306999916072396
_cell_angle_alpha    68.0183824641182
_cell_angle_beta     61.154108333569845
_cell_angle_gamma    60.046469443877704

_space_group_name_H-M_alt    "P 1"
_space_group_IT_number       1

loop_
  _space_group_symop_operation_xyz
  'x, y, z'

loop_
  _atom_site_type_symbol
  _atom_site_label
  _atom_site_symmetry_multiplicity
  _atom_site_fract_x
  _atom_site_fract_y
  _atom_site_fract_z
  _atom_site_occupancy
  Cu  Cu1       1.0  0.48608183963636986  0.7493802324975576  0.2510684929630215  1.0000
  Cu  Cu2       1.0  0.5139052598037779  0.2506201231538867  0.7489427542134874  1.0000
  Cu  Cu3       1.0  0.9361725005564666  0.7484913467466114  0.25095679414211963  1.0000
  Cu  Cu4       1.0  0.06382865578117984  0.2515090089048329  0.7490442059001906  1.0000
  Cu  Cu5       1.0  0.6504009184753986  0.9986879134115297  0.12216834486770965  1.0000
  Cu  Cu6       1.0  0.7725552671322976  0.4994129303541968  0.37869708689857595  1.0000
  Cu  Cu7       1.0  0.3496037739064663  0.0013085564005735  0.8778304409275817  1.0000
  Cu  Cu8       1.0  0.2274361710754463  0.500580625078392  0.6213042770186374  1.0000
  H   H1        1.0  0.11932131949063063  0.5743931149608841  0.059361907868883165  1.0000
  H   H2        1.0  0.7556401370661591  0.9244761535359842  0.4404149864538098  1.0000
  H   H3        1.0  0.8806822541020768  0.4256052977708862  0.9406378120373797  1.0000
  H   H4        1.0  0.24435385740867607  0.0755290594146487  0.5595912850945978  1.0000
  H   H5        1.0  0.3624638214867845  0.4137884603124391  0.9876983401953295  1.0000
  H   H6        1.0  0.7656736674121517  0.0875499034388909  0.5112710577105729  1.0000
  H   H7        1.0  0.637538050934836  0.5862050951201496  0.012304971238727095  1.0000
  H   H8        1.0  0.23431764016451967  0.9124582238912566  0.488733337735006  1.0000
  H   H9        1.0  0.5134020883905636  0.3672603914146606  0.09825833330175017  1.0000
  H   H10       1.0  0.9779224387544546  0.1352272093239506  0.4012543225789429  1.0000
  H   H11       1.0  0.4866005896974175  0.6327351069376022  0.9017430353469391  1.0000
  H   H12       1.0  0.02206976451893182  0.8647780036266823  0.5987518352892636  1.0000
  H   H13       1.0  0.4131362307050779  0.48858115317056416  0.2750451012721625  1.0000
  H   H14       1.0  0.17420709668918732  0.012922358753066002  0.22587459781192354  1.0000
  H   H15       1.0  0.5868686414175247  0.5114153166415321  0.7249554096640406  1.0000
  H   H16       1.0  0.8257838078623154  0.987090625876256  0.7741273578612959  1.0000
  H   H17       1.0  0.1710794417377316  0.6439554680560775  0.333981256333729  1.0000
  H   H18       1.0  0.14745388720202615  0.8549021429227465  0.16784335737198564  1.0000
  H   H19       1.0  0.8289257431876891  0.3560468305150408  0.6660145780017928  1.0000
  H   H20       1.0  0.8525357187555829  0.1451147275459306  0.832156670216271  1.0000
  H   H21       1.0  0.4904531664681785  0.1168986765774349  0.3636083514272173  1.0000
  H   H22       1.0  0.9702147420038046  0.3825365973530168  0.13650628787867428  1.0000
  H   H23       1.0  0.5095521517753029  0.8831016790740094  0.6363856293867795  1.0000
  H   H24       1.0  0.029783637789293715  0.6174598724590865  0.8634959531829052  1.0000
  H   H25       1.0  0.49149828706131177  0.2787302850001367  0.444067873430704  1.0000
  H   H26       1.0  0.21247717610686587  0.2234143904159751  0.05534693944051837  1.0000
  H   H27       1.0  0.5085096281139769  0.7212700706513075  0.5559254153331351  1.0000
  H   H28       1.0  0.7875201748634454  0.7765811079362805  0.9446588038850121  1.0000
  H   H29       1.0  0.6815180053842554  0.3590204690763983  0.32153781028800654  1.0000
  H   H30       1.0  0.36169882324190183  0.1434069011523107  0.1784696546583006  1.0000
  H   H31       1.0  0.31849201398728894  0.640979886575046  0.6784543267204056  1.0000
  H   H32       1.0  0.6382987507568463  0.8565915115794596  0.8215322550786223  1.0000
  H   H33       1.0  0.8658976672082375  0.2701231508434532  0.12334422611612422  1.0000
  H   H34       1.0  0.2605102543661106  0.23064205160397927  0.37830069874400607  1.0000
  H   H35       1.0  0.13411624762500937  0.7298752618883171  0.8766480098720774  1.0000
  H   H36       1.0  0.7394869167994571  0.7693553896679504  0.621702182385604  1.0000
  H   H37       1.0  0.846766778638525  0.1125815090613784  0.05480710274516547  1.0000
  H   H38       1.0  0.016468987422939677  0.3858871623311657  0.44729840556571787  1.0000
  H   H39       1.0  0.15323831657651973  0.8874159322105584  0.9451907116574387  1.0000
  H   H40       1.0  0.9835333774782387  0.6141141647801192  0.552700817353546  1.0000
  W   W1        1.0  0.7158709353424797  0.7494734926419184  0.25046970257051965  1.0000
  W   W2        1.0  0.2841303543772259  0.2505229771701778  0.749530581005281  1.0000
  C   C1        1.0  0.3149345961260651  0.6049513555966186  0.48346315189494476  1.0000
  C   C2        1.0  0.40293336387187395  0.8959919796524574  0.016874076920132004  1.0000
  C   C3        1.0  0.6850515149000104  0.39504414275564415  0.5165414496440943  1.0000
  C   C4        1.0  0.5970663143231295  0.10400643307932002  0.9831266810613571  1.0000
  C   C5        1.0  0.1889777018051504  0.552638243368925  0.1036118262077466  1.0000
  C   C6        1.0  0.8467002475442985  0.9467293840243727  0.39660419608302516  1.0000
  C   C7        1.0  0.8110263644591036  0.4473621122825193  0.8963872163487777  1.0000
  C   C8        1.0  0.153296074283226  0.0532748574664197  0.6033993642313787  1.0000
  C   C9        1.0  0.3240011198601067  0.46324353769939103  0.0645191354285969  1.0000
  C   C10       1.0  0.8527140778031636  0.0375022355513082  0.4351214916775206  1.0000
  C   C11       1.0  0.6760033493013256  0.5367558464922197  0.9354800727902624  1.0000
  C   C12       1.0  0.14727803556785812  0.9625039488591653  0.5648832350927221  1.0000
  C   C13       1.0  0.4075259960392331  0.4375872834016477  0.1263676341965051  1.0000
  C   C14       1.0  0.9710037459165975  0.0637967389620187  0.37355572801883596  1.0000
  C   C15       1.0  0.5924796817497299  0.5624111293301226  0.8736309339543309  1.0000
  C   C16       1.0  0.028987921141549567  0.9362113883681218  0.6264521177085669  1.0000
  C   C17       1.0  0.3528006128899009  0.5034075732043419  0.22424263727965138  1.0000
  C   C18       1.0  0.07910727635758967  0.9974221012437923  0.2764298912343576  1.0000
  C   C19       1.0  0.6472066762957739  0.4965927824471024  0.7757531823554585  1.0000
  C   C20       1.0  0.9208868512433243  0.0025869975461887  0.7235711156274787  1.0000
  C   C21       1.0  0.21666765039153552  0.591219770799249  0.257659142579044  1.0000
  C   C22       1.0  0.0647980840735017  0.9081585426522594  0.24359168492912178  1.0000
  C   C23       1.0  0.783338340264237  0.4087825277718764  0.7423358860261258  1.0000
  C   C24       1.0  0.9351915220761033  0.0918524990573957  0.7564117538241956  1.0000
  C   C25       1.0  0.5703513467656693  0.1557386123244271  0.3124608774098688  1.0000
  C   C26       1.0  0.038099159458617686  0.3440706736433086  0.18809207112772697  1.0000
  C   C27       1.0  0.42965880592394284  0.8442598004073432  0.6875294060770185  1.0000
  C   C28       1.0  0.9619020868453989  0.6559267676286282  0.8119114970675625  1.0000
  C   C29       1.0  0.571703855981305  0.24525960777278746  0.3568869266993031  1.0000
  C   C30       1.0  0.1730184766899541  0.255934008462809  0.1432125868669729  1.0000
  C   C31       1.0  0.4283016854826159  0.7547378334991492  0.6431066316911254  1.0000
  C   C32       1.0  0.8269843345880974  0.7440634328091207  0.8567846541501534  1.0000
  C   C33       1.0  0.6774783901334801  0.2896844661232478  0.28825994544793326  1.0000
  C   C34       1.0  0.25535173642884973  0.21167624120433  0.2121467847008275  1.0000
  C   C35       1.0  0.3225286295370751  0.710312975148689  0.7117349920583321  1.0000
  C   C36       1.0  0.7446514343306847  0.7883212000676068  0.7878539065981227  1.0000
  C   C37       1.0  0.7788762571920814  0.2415806893696981  0.1784036141619862  1.0000
  C   C38       1.0  0.1997096623410712  0.2588542167331269  0.3227672886067126  1.0000
  C   C39       1.0  0.22113067264010802  0.7584157804423981  0.8215910293013308  1.0000
  C   C40       1.0  0.800291134515092  0.7411461389183174  0.6772302611537737  1.0000
  C   C41       1.0  0.7696715428939456  0.1527999463172094  0.14009073124018553  1.0000
  C   C42       1.0  0.06374880971629443  0.3464692079811016  0.36141791039464266  1.0000
  C   C43       1.0  0.23034049096347808  0.8471955520350534  0.8599022340798823  1.0000
  C   C44       1.0  0.9362532421900769  0.6535321191301833  0.6385825779602566  1.0000
  S   S1        1.0  0.5060884607635645  0.9081313417768229  0.29659687083486813  1.0000
  S   S2        1.0  0.7096394604745201  0.5911245677352142  0.203764934919249  1.0000
  S   S3        1.0  0.493911217431439  0.0918670709549474  0.7034038871466206  1.0000
  S   S4        1.0  0.29035264995352633  0.4088767593760707  0.7962340656240838  1.0000
  S   S5        1.0  0.865849450066591  0.828177282804198  0.08409825500687858  1.0000
  S   S6        1.0  0.7799048998828443  0.6700177925657229  0.4175612544438531  1.0000
  S   S7        1.0  0.13415233238865934  0.1718191870078982  0.9159024882741988  1.0000
  S   S8        1.0  0.22009934324317026  0.3299757628668587  0.5824349240816885  1.0000
  N   N1        1.0  0.36972719856104425  0.6699663051943574  0.39859353907572614  1.0000
  N   N2        1.0  0.437036872089685  0.8295586986925514  0.10262326728071253  1.0000
  N   N3        1.0  0.6302589124650312  0.3300291931578982  0.6014110624633133  1.0000
  N   N4        1.0  0.5629541226841682  0.1704435998785669  0.8973858047655552  1.0000
  N   N5        1.0  0.13509050241658122  0.6163096640119576  0.19862037831254034  1.0000
  N   N6        1.0  0.9507377492082938  0.8822866242706838  0.30249519677361986  1.0000
  N   N7        1.0  0.8649146823808495  0.3836965203985088  0.8013731819129501  1.0000
  N   N8        1.0  0.04925472063722963  0.1177166457602752  0.6975061169965142  1.0000
  N   N9        1.0  0.6665790649587964  0.11083482427427778  0.20532468083520417  1.0000
  N   N10       1.0  0.9831436063274738  0.3881224914163255  0.2959859165451702  1.0000
  N   N11       1.0  0.3334262533486909  0.8891635884574995  0.794670437033808  1.0000
  N   N12       1.0  0.016857773166606214  0.6118768927752853  0.7040135240185634  1.0000
