data_image0
_chemical_formula_structural       Zn8H41C78N9O26
_chemical_formula_sum              "Zn8 H41 C78 N9 O26"
_cell_length_a       18.221686929328435
_cell_length_b       18.661850438521938
_cell_length_c       18.33408087194042
_cell_angle_alpha    60.270289222367055
_cell_angle_beta     60.0963462207635
_cell_angle_gamma    60.198476426855414

_space_group_name_H-M_alt    "P 1"
_space_group_IT_number       1

loop_
  _space_group_symop_operation_xyz
  'x, y, z'

loop_
  _atom_site_type_symbol
  _atom_site_label
  _atom_site_symmetry_multiplicity
  _atom_site_fract_x
  _atom_site_fract_y
  _atom_site_fract_z
  _atom_site_occupancy
  Zn  Zn1       1.0  0.5393145633060995  0.8694030369457337  0.05385958447327991  1.0000
  Zn  Zn2       1.0  0.553519988988981  0.0380834435534751  0.8733340621724821  1.0000
  Zn  Zn3       1.0  0.5456273566779758  0.0380391464351604  0.05114673333626733  1.0000
  Zn  Zn4       1.0  0.3711902988179716  0.046085631444846314  0.04228421430619988  1.0000
  Zn  Zn5       1.0  0.9563966709445425  0.6313949605302439  0.46436182295997963  1.0000
  Zn  Zn6       1.0  0.9532825187664714  0.4607676572951149  0.45868054093520555  1.0000
  Zn  Zn7       1.0  0.9585850690364595  0.4580114143951093  0.6310693553469306  1.0000
  Zn  Zn8       1.0  0.13240127751439704  0.46306027000074573  0.44901367276796134  1.0000
  H   H1        1.0  0.4065478713960432  0.6996260450784177  0.21243701907284418  1.0000
  H   H2        1.0  0.18060812540405638  0.987222165912506  0.16754548225656404  1.0000
  H   H3        1.0  0.33129265000056307  0.3026219243744848  0.5767767076878982  1.0000
  H   H4        1.0  0.138857387592509  0.14487780177789486  0.9517301090515319  1.0000
  H   H5        1.0  0.7452845301612001  0.35254462295838346  0.8100797299592486  1.0000
  H   H6        1.0  0.9249052754702873  0.1681222182796844  0.5931464299636743  1.0000
  H   H7        1.0  0.7427276229065783  0.16007563399920596  0.6369314874258903  1.0000
  H   H8        1.0  0.7422568562497318  0.592592225638171  0.8178462954704956  1.0000
  H   H9        1.0  0.8104411787675899  0.9211496597597134  0.6853959334595814  1.0000
  H   H10       1.0  0.7311191886663195  0.95995463085643  0.6329189941223776  1.0000
  H   H11       1.0  0.31627411314265425  0.5984878792053507  0.30290116909674236  1.0000
  H   H12       1.0  0.7428818408110089  0.8746227912605063  0.3531696994544691  1.0000
  H   H13       1.0  0.6671075155668121  0.8139827792396019  0.42755106901294926  1.0000
  H   H14       1.0  0.06651585573489173  0.16597465476618814  0.8562235431245072  1.0000
  H   H15       1.0  0.9711234607040995  0.2225596943499468  0.929470871461511  1.0000
  H   H16       1.0  0.9928588723770913  0.2707180794856754  0.8120881990661178  1.0000
  H   H17       1.0  0.5636357166692534  0.2716301192194805  0.9506311269443161  1.0000
  H   H18       1.0  0.6553500366471708  0.20720413286840514  0.9886282921203104  1.0000
  H   H19       1.0  0.6318874692779987  0.3223217422891834  0.9383598792421425  1.0000
  H   H20       1.0  0.04926062021097982  0.10781738181576368  0.1547382637272463  1.0000
  H   H21       1.0  0.9735716500710011  0.09709343694353832  0.12859621180999178  1.0000
  H   H22       1.0  0.9524608156810501  0.08034553212684158  0.23952235202309408  1.0000
  H   H23       1.0  0.5739455309674569  0.905029152014137  0.3265064637828984  1.0000
  H   H24       1.0  0.889896586240134  0.03414522740725091  0.7241285338453666  1.0000
  H   H25       1.0  0.7937663385732634  0.013117366745909496  0.7481074039298223  1.0000
  H   H26       1.0  0.8777179446469958  0.0222669459213733  0.6404371886192594  1.0000
  H   H27       1.0  0.9727374584259888  0.8655741057175136  0.5547553469230382  1.0000
  H   H28       1.0  0.9513123430784134  0.7862218371359546  0.6636345877426848  1.0000
  H   H29       1.0  0.9900366700264273  0.7575627015754023  0.5678511469798622  1.0000
  H   H30       1.0  0.7723540435984546  0.7450111167314118  0.04999168280036058  1.0000
  H   H31       1.0  0.8868537109467595  0.7090387904943468  0.03933993751177662  1.0000
  H   H32       1.0  0.8253847092553956  0.6362676004975043  0.10939870103990054  1.0000
  H   H33       1.0  0.967086011553839  0.6309917543146353  0.12109007207386177  1.0000
  H   H34       1.0  0.6493231581341449  0.9661190878278417  0.2529658312100622  1.0000
  H   H35       1.0  0.97715309361881  0.5884043706282682  0.22721318575803182  1.0000
  H   H36       1.0  0.9170943175086135  0.551831326061496  0.208194401473797  1.0000
  H   H37       1.0  0.3134688144442705  0.3098299273253176  0.28827793085874015  1.0000
  H   H38       1.0  0.030748635385350564  0.22994826876074373  0.36891075883610114  1.0000
  H   H39       1.0  0.13048273220582735  0.13114260480850953  0.27619429327678097  1.0000
  H   H40       1.0  0.1225934446137771  0.2238483500857456  0.1768797340576427  1.0000
  H   H41       1.0  0.427209468286918  0.20485738052380495  0.6729073894988176  1.0000
  C   C1        1.0  0.37325542043959814  0.13613495612282378  0.8553109414386171  1.0000
  C   C2        1.0  0.7179856763608401  0.8076114720326403  0.17911488718490173  1.0000
  C   C3        1.0  0.7930835259566322  0.7325104590630643  0.16317924880460305  1.0000
  C   C4        1.0  0.6514554315965526  0.8601307207877724  0.1320730188450128  1.0000
  C   C5        1.0  0.8474231533964983  0.6826075205952405  0.21824859124356505  1.0000
  C   C6        1.0  0.8247106113105644  0.70417301041266  0.29293164727441484  1.0000
  C   C7        1.0  0.7558294850086614  0.7822153988689421  0.3019349674909293  1.0000
  C   C8        1.0  0.7036142055668789  0.8425692465438247  0.3570841304726997  1.0000
  C   C9        1.0  0.6450929335888063  0.9000928250906242  0.29362619309905813  1.0000
  C   C10       1.0  0.20952017872567547  0.21215470929783461  0.23644134019613008  1.0000
  C   C11       1.0  0.30231797802021987  0.1914935322882982  0.20000688320493507  1.0000
  C   C12       1.0  0.06722841700751303  0.8252447471858203  0.2332700959941149  1.0000
  C   C13       1.0  0.33899783464961786  0.22903930476733333  0.2198960021353998  1.0000
  C   C14       1.0  0.28337836140131867  0.2824389988846576  0.2739719675196498  1.0000
  C   C15       1.0  0.1897091076045356  0.30279736396240503  0.30964546229105866  1.0000
  C   C16       1.0  0.629726931769298  0.8583319468796232  0.8709920019371538  1.0000
  C   C17       1.0  0.1549062326232757  0.2666068243049793  0.28855143136994593  1.0000
  C   C18       1.0  0.06845781583903231  0.26116143070036196  0.30002444638459747  1.0000
  C   C19       1.0  0.13217569938996124  0.19834131538688377  0.24095220420578298  1.0000
  C   C20       1.0  0.22368186339441098  0.21915926658429902  0.831160322075398  1.0000
  C   C21       1.0  0.3170868422380265  0.19270048057313005  0.7965040255479324  1.0000
  C   C22       1.0  0.3543666690406083  0.22384413906734582  0.7029264866527641  1.0000
  C   C23       1.0  0.1528662114913431  0.7906902053174675  0.24328054565956594  1.0000
  C   C24       1.0  0.3005100645591696  0.27863516945362227  0.648941259179104  1.0000
  C   C25       1.0  0.20612447721168783  0.3051280259118628  0.6851411090923492  1.0000
  C   C26       1.0  0.17022599295429328  0.2726753239444478  0.7777487735387894  1.0000
  C   C27       1.0  0.081398563622777  0.2741077760627988  0.8560204034574141  1.0000
  C   C28       1.0  0.3585560040026579  0.13490679764468175  0.14292991463771196  1.0000
  C   C29       1.0  0.14489963691204377  0.21060653433778495  0.918040469311869  1.0000
  C   C30       1.0  0.753299493904926  0.19437074997149037  0.7294154771968311  1.0000
  C   C31       1.0  0.6958062525969525  0.19529732063301  0.8154298686245623  1.0000
  C   C32       1.0  0.6926148554119393  0.2548914300423632  0.8448435174118033  1.0000
  C   C33       1.0  0.7475242710508708  0.3075826332242145  0.7868969802209876  1.0000
  C   C34       1.0  0.19899867269803898  0.8508491232856628  0.2076726579352838  1.0000
  C   C35       1.0  0.8052705995414726  0.30603503823543576  0.7003529272299432  1.0000
  C   C36       1.0  0.8058265769978445  0.24788716624848925  0.6734737892013885  1.0000
  C   C37       1.0  0.8535227879781929  0.20622350326770086  0.6008926651845102  1.0000
  C   C38       1.0  0.7912587648872106  0.14566385070242657  0.6653000596452757  1.0000
  C   C39       1.0  0.7444213478777685  0.826285389654416  0.7307809067572177  1.0000
  C   C40       1.0  0.642498981227085  0.1349656590824111  0.8704901100078716  1.0000
  C   C41       1.0  0.6851575966823944  0.7994260642663137  0.8159480494478545  1.0000
  C   C42       1.0  0.6850106527266107  0.7128764394984158  0.8459072505160209  1.0000
  C   C43       1.0  0.743591073368144  0.6586588973298289  0.7925034472096542  1.0000
  C   C44       1.0  0.8040174111649704  0.6870660421452895  0.7073847321837762  1.0000
  C   C45       1.0  0.29346082363095866  0.8152667665580251  0.1949460415234725  1.0000
  C   C46       1.0  0.8018752112852782  0.7722607355578572  0.6786620113831319  1.0000
  C   C47       1.0  0.849744635843564  0.8385683127088439  0.6047996894519797  1.0000
  C   C48       1.0  0.7791563539702296  0.9015325903194124  0.6634953489684037  1.0000
  C   C49       1.0  0.1337082688171094  0.3603690172807177  0.3660871053001671  1.0000
  C   C50       1.0  0.8656621643814189  0.6299332029163978  0.6507211098441346  1.0000
  C   C51       1.0  0.8670197331960025  0.6454788749539945  0.36300678396899844  1.0000
  C   C52       1.0  0.3534129166487574  0.8699797154654191  0.14379992115541285  1.0000
  C   C53       1.0  0.14785330157236842  0.36554048092605734  0.6285562329035914  1.0000
  C   C54       1.0  0.8625930057958725  0.36259173533597533  0.6429729131025113  1.0000
  C   C55       1.0  0.1414288970668096  0.6387202469168685  0.34911982541233755  1.0000
  C   C56       1.0  0.3345758591874598  0.7252985973763586  0.2249957929120897  1.0000
  C   C57       1.0  0.14811331803202418  0.9416773290009814  0.18784302331194874  1.0000
  C   C58       1.0  0.05961962410464851  0.9746045163283981  0.19290543355016612  1.0000
  C   C59       1.0  0.02083894366086986  0.9153150583904405  0.2097892607722116  1.0000
  C   C60       1.0  0.43265856275180437  0.21702421122392931  0.1858050064864613  1.0000
  C   C61       1.0  0.007326345318197998  0.34190769890150813  0.2597024003213875  1.0000
  C   C62       1.0  0.027761226611723124  0.3604960658782942  0.8654192452497115  1.0000
  C   C63       1.0  0.02410120090845422  0.2305709739003348  0.8639977197156411  1.0000
  C   C64       1.0  0.1345129190041661  0.24021293747831152  0.9831956699098471  1.0000
  C   C65       1.0  0.6328322005703271  0.2647941247233092  0.9350088957971254  1.0000
  C   C66       1.0  0.8445966421560129  0.2591808334379664  0.5134730956234604  1.0000
  C   C67       1.0  0.28481424248774806  0.6681469327457064  0.27271237614330357  1.0000
  C   C68       1.0  0.006581490259186792  0.07011241319091252  0.17752656011537482  1.0000
  C   C69       1.0  0.841274895070427  0.04805830804517088  0.6961121337691409  1.0000
  C   C70       1.0  0.6241366987547109  0.6775563874203883  0.9297101765929555  1.0000
  C   C71       1.0  0.947471018680133  0.8101243051544813  0.5971002114645999  1.0000
  C   C72       1.0  0.8427479300079455  0.8713478799040002  0.5171247796353244  1.0000
  C   C73       1.0  0.9360084112468314  0.9485292966374883  0.1995153405063448  1.0000
  C   C74       1.0  0.036220520538528006  0.7687143584669015  0.23317606229639407  1.0000
  C   C75       1.0  0.8199667271283885  0.7049671877180617  0.08627541520913706  1.0000
  C   C76       1.0  0.9312825542490798  0.6094117035762139  0.19320234246134052  1.0000
  C   C77       1.0  0.19465169045524536  0.6995483415752658  0.28349785510909004  1.0000
  C   C78       1.0  0.7046701778254771  0.8328713721624438  0.24602793499121142  1.0000
  N   N1        1.0  0.5066903444625835  0.21355243844067928  0.16162131040918842  1.0000
  N   N2        1.0  0.9602756488305033  0.4055346053371806  0.22364017247070891  1.0000
  N   N3        1.0  0.9847746695643308  0.4303512660649886  0.8709006135651335  1.0000
  N   N4        1.0  0.1250439618401344  0.2637671579172931  0.03641938207546501  1.0000
  N   N5        1.0  0.8366614035577202  0.29808562433007774  0.44320601277905786  1.0000
  N   N6        1.0  0.5750872544958625  0.6445354482952795  0.9952768265450231  1.0000
  N   N7        1.0  0.8391643260189808  0.8998071885046101  0.44572616477140065  1.0000
  N   N8        1.0  0.8670099152038587  0.9778594712777249  0.1892515570571974  1.0000
  N   N9        1.0  0.01810795329377162  0.7219679580106586  0.22472908518624715  1.0000
  O   O1        1.0  0.5018353044076421  0.9983909803201457  0.0032506124382009685  1.0000
  O   O2        1.0  0.06363567552815398  0.38283262047696104  0.6710164594994836  1.0000
  O   O3        1.0  0.8856574869690945  0.38268048350474976  0.5590056232238395  1.0000
  O   O4        1.0  0.32939040876821934  0.1172424347610601  0.9388200749481046  1.0000
  O   O5        1.0  0.18268820648617637  0.55740008539761  0.3595605191712253  1.0000
  O   O6        1.0  0.8840949717544004  0.385313761538839  0.6829021739509717  1.0000
  O   O7        1.0  0.060768931563394836  0.6731468380374748  0.39356748340338765  1.0000
  O   O8        1.0  0.8710272329207456  0.6813933288672233  0.4046332013836181  1.0000
  O   O9        1.0  0.1862706995234474  0.3941919327808777  0.5447957751724175  1.0000
  O   O10       1.0  0.04912277465639649  0.3803077344383041  0.391041553751883  1.0000
  O   O11       1.0  0.8750492770800379  0.5488372324153162  0.6876878122612523  1.0000
  O   O12       1.0  0.5920141812955392  0.8249282928340235  0.9537279071275295  1.0000
  O   O13       1.0  0.6318556993462181  0.8224198988183247  0.10496139413913139  1.0000
  O   O14       1.0  0.6272166865122274  0.9380359089233893  0.8285453853134611  1.0000
  O   O15       1.0  0.4429177850897048  0.11527668864478359  0.11758819944950731  1.0000
  O   O16       1.0  0.6285749478190327  0.10848127461777318  0.8273062984413786  1.0000
  O   O17       1.0  0.3197339751653844  0.9516211879502804  0.10539995624765915  1.0000
  O   O18       1.0  0.6162629043040299  0.11346745412234328  0.9547197744122541  1.0000
  O   O19       1.0  0.43526109570463245  0.8302150305352425  0.1401419193255934  1.0000
  O   O20       1.0  0.31660241214471796  0.11123246797462369  0.12443707298583456  1.0000
  O   O21       1.0  0.45812489591038036  0.11212140110193759  0.8181736175270657  1.0000
  O   O22       1.0  0.6147772939565641  0.9411818653876907  0.12543789545665623  1.0000
  O   O23       1.0  0.0015929240823809017  0.5022606054599095  0.5010466290192639  1.0000
  O   O24       1.0  0.17590504999122905  0.3836348122047895  0.3843574034384715  1.0000
  O   O25       1.0  0.9036152232939048  0.6685983702244014  0.5692808338271151  1.0000
  O   O26       1.0  0.8918153418033015  0.5632080548054502  0.38014356783136816  1.0000
