data_image0
_chemical_formula_structural       Cd2H20C18N12O12
_chemical_formula_sum              "Cd2 H20 C18 N12 O12"
_cell_length_a       7.448668205860434
_cell_length_b       8.422909143095909
_cell_length_c       9.714388483003578
_cell_angle_alpha    90.00007999356409
_cell_angle_beta     90.00005092558409
_cell_angle_gamma    94.33415145661642

_space_group_name_H-M_alt    "P 1"
_space_group_IT_number       1

loop_
  _space_group_symop_operation_xyz
  'x, y, z'

loop_
  _atom_site_type_symbol
  _atom_site_label
  _atom_site_symmetry_multiplicity
  _atom_site_fract_x
  _atom_site_fract_y
  _atom_site_fract_z
  _atom_site_occupancy
  Cd  Cd1       1.0  0.2728827265187732  0.1537538292942102  0.0223289203355606  1.0000
  Cd  Cd2       1.0  0.7728821654618229  0.153753595092553  0.9776717781219872  1.0000
  H   H1        1.0  0.9380347886238032  0.698863536405199  0.1237079629686875  1.0000
  H   H2        1.0  0.438036246782879  0.6988628399967284  0.8762924779687538  1.0000
  H   H3        1.0  0.11139405307451261  0.5823089835508242  0.0654157274944964  1.0000
  H   H4        1.0  0.6113961198123548  0.5823086643218502  0.934584349871585  1.0000
  H   H5        1.0  0.7562066441937534  0.2206786450005467  0.36672033507464613  1.0000
  H   H6        1.0  0.25620655177907287  0.2206787323275279  0.6332804329677586  1.0000
  H   H7        1.0  0.7529467104248014  0.03603212664648231  0.28010849151279155  1.0000
  H   H8        1.0  0.2529467309897342  0.0360323611027127  0.7198920509697544  1.0000
  H   H9        1.0  0.2725546255328198  0.4973342098226822  0.8234974170524225  1.0000
  H   H10       1.0  0.772554578240346  0.49733498999696485  0.1765016379568536  1.0000
  H   H11       1.0  0.16629890750540713  0.44129052902387395  0.6663943030855677  1.0000
  H   H12       1.0  0.6662990651440738  0.441291576072544  0.3336046117271536  1.0000
  H   H13       1.0  0.9010230100536775  0.8827006126739007  0.7023878219604709  1.0000
  H   H14       1.0  0.4010225882017482  0.882701320423543  0.2976128161144089  1.0000
  H   H15       1.0  0.18072171581048485  0.5229400913835036  0.2841798714651985  1.0000
  H   H16       1.0  0.6807209216050226  0.522940602997828  0.7158201813352676  1.0000
  H   H17       1.0  0.073472704887827  0.7244436343050253  0.8307382923200493  1.0000
  H   H18       1.0  0.5734726481501724  0.7244444021791949  0.16926090172147917  1.0000
  H   H19       1.0  0.8073603778551118  0.0961744039175869  0.5658269943606342  1.0000
  H   H20       1.0  0.3073600257174435  0.09617415301675442  0.4341726285463849  1.0000
  C   C1        1.0  0.06593481884018361  0.6987688408273626  0.3880001638916539  1.0000
  C   C2        1.0  0.5659351227864776  0.6987679795334997  0.6119989939573784  1.0000
  C   C3        1.0  0.052359122550221605  0.7043556319040434  0.6213704879068159  1.0000
  C   C4        1.0  0.5523592304996259  0.704355564807379  0.3786286674487727  1.0000
  C   C5        1.0  0.9391921266450328  0.9074345985215474  0.48741806529461945  1.0000
  C   C6        1.0  0.43918930120855043  0.9074356832793454  0.5125826287074204  1.0000
  C   C7        1.0  0.0813465785487253  0.6783446616153129  0.135493269271187  1.0000
  C   C8        1.0  0.581347211874537  0.678344229260432  0.8645058743767747  1.0000
  C   C9        1.0  0.17943356713995232  0.8332645848297346  0.08496628385810819  1.0000
  C   C10       1.0  0.6794330327964604  0.8332654348528621  0.9150341434165767  1.0000
  C   C11       1.0  0.8333068416938617  0.11711738776779158  0.3482785820467242  1.0000
  C   C12       1.0  0.33330543133494933  0.117117512338389  0.6517210838732267  1.0000
  C   C13       1.0  0.009801729935745096  0.17154901353602267  0.27442190982575454  1.0000
  C   C14       1.0  0.5098021820393727  0.17154834518207449  0.7255796602767717  1.0000
  C   C15       1.0  0.14318391165317484  0.4920157529864114  0.7683698647211372  1.0000
  C   C16       1.0  0.6431839362711005  0.4920166268069934  0.2316290956938971  1.0000
  C   C17       1.0  0.012130637329505601  0.3779758608667265  0.847247593110346  1.0000
  C   C18       1.0  0.5121291086370549  0.3779754159853255  0.1527521694597382  1.0000
  N   N1        1.0  0.10289106828776805  0.6289167362414787  0.5093839971620255  1.0000
  N   N2        1.0  0.6028899803175848  0.6289168652966808  0.49061613078300337  1.0000
  N   N3        1.0  0.9692642885997318  0.8442365956335323  0.6146808086380702  1.0000
  N   N4        1.0  0.4692638727359579  0.8442362617445127  0.3853198294161189  1.0000
  N   N5        1.0  0.98651872965241  0.8364109714788412  0.3719326425553504  1.0000
  N   N6        1.0  0.48651718001804073  0.8364098652392402  0.6280669683899234  1.0000
  N   N7        1.0  0.11763312435515874  0.6252579658669576  0.2731004702353488  1.0000
  N   N8        1.0  0.6176335781809145  0.6252572997556739  0.726898633929565  1.0000
  N   N9        1.0  0.08078596169426082  0.6480054076721872  0.7478354491532355  1.0000
  N   N10       1.0  0.5807860130988161  0.6480063163760336  0.2521646868174584  1.0000
  N   N11       1.0  0.8612403189077966  0.044675112423384206  0.4805555307306477  1.0000
  N   N12       1.0  0.3612399695825915  0.0446738157482969  0.5194461254039382  1.0000
  O   O1        1.0  0.1454459131031882  0.8732874816452353  0.9621815751292006  1.0000
  O   O2        1.0  0.6454456849060932  0.8732880262340074  0.0378178479927271  1.0000
  O   O3        1.0  0.2804126580792357  0.9217831618482465  0.16369289188143196  1.0000
  O   O4        1.0  0.780413254620001  0.9217826815895406  0.8363056524719282  1.0000
  O   O5        1.0  0.05835802480476811  0.2349047734347778  0.8596559204776284  1.0000
  O   O6        1.0  0.5583578219266343  0.23490430155869288  0.14034472994497085  1.0000
  O   O7        1.0  0.8678069395088245  0.4237387964233719  0.896191806323337  1.0000
  O   O8        1.0  0.3678062648506071  0.4237391749525655  0.1038072245794055  1.0000
  O   O9        1.0  0.14993673381189151  0.2103472840916467  0.340174961899443  1.0000
  O   O10       1.0  0.6499371001441788  0.2103465040407926  0.6598257212272856  1.0000
  O   O11       1.0  6.09088226965995e-05  0.17621572452767248  0.14096729175134468  1.0000
  O   O12       1.0  0.5000603014287748  0.1762164794198853  0.8590322185565213  1.0000
