data_image0
_chemical_formula_structural       Zn2H12C26N2O8F8
_chemical_formula_sum              "Zn2 H12 C26 N2 O8 F8"
_cell_length_a       10.211218148830852
_cell_length_b       10.98952051611556
_cell_length_c       11.257415260769694
_cell_angle_alpha    88.19540280656555
_cell_angle_beta     84.04165416599763
_cell_angle_gamma    81.69374621011004

_space_group_name_H-M_alt    "P 1"
_space_group_IT_number       1

loop_
  _space_group_symop_operation_xyz
  'x, y, z'

loop_
  _atom_site_type_symbol
  _atom_site_label
  _atom_site_symmetry_multiplicity
  _atom_site_fract_x
  _atom_site_fract_y
  _atom_site_fract_z
  _atom_site_occupancy
  Zn  Zn1       1.0  0.36088529375957273  0.5155274817836855  0.49280470672653093  1.0000
  Zn  Zn2       1.0  0.6391208908558569  0.48447108462684685  0.5072042153560331  1.0000
  H   H1        1.0  0.3989248243250575  0.7755447717627884  0.32254614030514256  1.0000
  H   H2        1.0  0.9478992799167828  0.715313551275578  0.46099747982626826  1.0000
  H   H3        1.0  0.9305305782078365  0.6333993784829203  0.3309280817294534  1.0000
  H   H4        1.0  0.7898137695112768  0.6752578640034128  0.43695731048769887  1.0000
  H   H5        1.0  0.6010635792979571  0.22446121543907788  0.6774508364254003  1.0000
  H   H6        1.0  0.32395305772979555  0.470083216306662  0.9000568795978906  1.0000
  H   H7        1.0  0.6760489391685454  0.5299172088461643  0.09994703433319067  1.0000
  H   H8        1.0  0.13094780606196824  0.6180985869778084  0.4246261265072134  1.0000
  H   H9        1.0  0.8690600452605252  0.3819018056310595  0.5753870370135274  1.0000
  H   H10       1.0  0.052099517584075314  0.2846822999417427  0.538998853469522  1.0000
  H   H11       1.0  0.21018668639238317  0.324726946841956  0.5630409615296158  1.0000
  H   H12       1.0  0.06947497822324786  0.3665909471454682  0.66906513825986  1.0000
  C   C1        1.0  0.5517245992267449  0.5283415075279974  0.2708437099394557  1.0000
  C   C2        1.0  0.5251640262269035  0.26109514987908966  0.47475677618558615  1.0000
  C   C3        1.0  0.4171714244572656  0.8706153093285705  0.31114436048147087  1.0000
  C   C4        1.0  0.5828254449655363  0.1293869929579117  0.6888466338437665  1.0000
  C   C5        1.0  0.3972886684588063  0.929672949897302  0.20469363479109853  1.0000
  C   C6        1.0  0.6027222732358837  0.07032748524508747  0.7952952669678691  1.0000
  C   C7        1.0  0.42080804880249195  0.052987860615829205  0.1839277512765136  1.0000
  C   C8        1.0  0.5792045629776087  0.9470079701538618  0.8160629073366149  1.0000
  C   C9        1.0  0.4628474721415969  0.11533764405618285  0.27347617245956707  1.0000
  C   C10       1.0  0.5371529182934226  0.8846609766111012  0.7265128342278185  1.0000
  C   C11       1.0  0.4803192901971514  0.0612989231776098  0.3889270126698179  1.0000
  C   C12       1.0  0.448283138160349  0.4716598138573003  0.7291649960717093  1.0000
  C   C13       1.0  0.5196763061698563  0.9387052170556913  0.6110658203415793  1.0000
  C   C14       1.0  0.4585914732917261  0.934368201482222  0.4062642132973123  1.0000
  C   C15       1.0  0.5414048082194187  0.06563133648512577  0.5937304644680379  1.0000
  C   C16       1.0  0.5194712373728408  0.12486276953396917  0.48285829108927186  1.0000
  C   C17       1.0  0.48052660193028623  0.8751395252175557  0.51713528178756  1.0000
  C   C18       1.0  0.10289057328218837  0.35598043084596737  0.5732931590098075  1.0000
  C   C19       1.0  0.897113271259031  0.644008052299483  0.4267038188954755  1.0000
  C   C20       1.0  0.5750971507869523  0.5248065054027363  0.13934967281583246  1.0000
  C   C21       1.0  0.424907231368408  0.47520401929976697  0.8606581859383905  1.0000
  C   C22       1.0  0.4855409495042196  0.506137663464223  0.06445262043670398  1.0000
  C   C23       1.0  0.5144545748420556  0.4938793143889553  0.9355567363653703  1.0000
  C   C24       1.0  0.9286317854791408  0.5243892232118694  0.49162449987587553  1.0000
  C   C25       1.0  0.07137020311494523  0.4755983353706767  0.5083771113385536  1.0000
  C   C26       1.0  0.4748384229244778  0.7389025287512538  0.5252409562974306  1.0000
  N   N1        1.0  0.8357698096005284  0.46253329773854546  0.532738446146375  1.0000
  N   N2        1.0  0.1642428725741283  0.5374680203505519  0.4672662650973434  1.0000
  O   O1        1.0  0.4322820412160696  0.5471406474191126  0.31975284374658486  1.0000
  O   O2        1.0  0.5677258235253859  0.4528533182375225  0.6802560575558941  1.0000
  O   O3        1.0  0.6564716486872798  0.5111635386325232  0.32549209372595556  1.0000
  O   O4        1.0  0.3435355359303501  0.4888350310994553  0.6745140740054436  1.0000
  O   O5        1.0  0.36309551004055163  0.7019142268678068  0.5243548851260227  1.0000
  O   O6        1.0  0.6369053930014419  0.29808713097760625  0.4756437703781414  1.0000
  O   O7        1.0  0.5876871873824357  0.6722830216994282  0.5249808624477905  1.0000
  O   O8        1.0  0.4123118797936769  0.3277174188206756  0.4750188710970205  1.0000
  F   F1        1.0  0.5962470923909394  0.8930432058944292  0.9237248138956741  1.0000
  F   F2        1.0  0.4037737171556587  0.10695078303752581  0.07625805783001738  1.0000
  F   F3        1.0  0.35476646866465716  0.8722845289339598  0.11415439811137415  1.0000
  F   F4        1.0  0.6452508399509612  0.12771314885478796  0.8858269059836699  1.0000
  F   F5        1.0  0.4911882295744762  0.230410581924012  0.2477534501698173  1.0000
  F   F6        1.0  0.5088107337068594  0.7695907909913159  0.7522400482311652  1.0000
  F   F7        1.0  0.6419688280459611  0.5057193546456276  0.8968192745670219  1.0000
  F   F8        1.0  0.35802597765596994  0.4943086451881412  0.1031960549678672  1.0000
