data_image0
_chemical_formula_structural       Zn2H34C40I2N12O10
_chemical_formula_sum              "Zn2 H34 C40 I2 N12 O10"
_cell_length_a       10.23810161000048
_cell_length_b       10.243904423988797
_cell_length_c       13.616033189774848
_cell_angle_alpha    71.89835646578948
_cell_angle_beta     84.18811629776435
_cell_angle_gamma    72.04824743638174

_space_group_name_H-M_alt    "P 1"
_space_group_IT_number       1

loop_
  _space_group_symop_operation_xyz
  'x, y, z'

loop_
  _atom_site_type_symbol
  _atom_site_label
  _atom_site_symmetry_multiplicity
  _atom_site_fract_x
  _atom_site_fract_y
  _atom_site_fract_z
  _atom_site_occupancy
  Zn  Zn1       1.0  0.8696217187612519  0.2735027045467433  0.5472894952913663  1.0000
  Zn  Zn2       1.0  0.1303875884511997  0.7264948717143154  0.45271121092596905  1.0000
  H   H1        1.0  0.9007497750012518  0.05417153888274841  0.40784840379900095  1.0000
  H   H2        1.0  0.0992676758650219  0.9458110487135868  0.5921575157050825  1.0000
  H   H3        1.0  0.3601444626671792  0.2775561089814572  0.5609947464714296  1.0000
  H   H4        1.0  0.6398668867590516  0.722454435359232  0.43900723184253104  1.0000
  H   H5        1.0  0.23414342771112476  0.1254922861113243  0.3355518561712998  1.0000
  H   H6        1.0  0.7658487208956969  0.8745482073479849  0.6644391380672587  1.0000
  H   H7        1.0  0.6592548890868385  0.1098831308881216  0.35394833582814306  1.0000
  H   H8        1.0  0.340747751131019  0.8901348087127445  0.6460436166471055  1.0000
  H   H9        1.0  0.6097080369960891  0.39970956683728087  0.694234265268328  1.0000
  H   H10       1.0  0.3903106394323714  0.6002869434410485  0.3057587939120054  1.0000
  H   H11       1.0  0.012517857915398174  0.4279806196176851  0.6701187062828993  1.0000
  H   H12       1.0  0.9874909508737985  0.5720255635795014  0.3298800272646928  1.0000
  H   H13       1.0  0.2123971385071997  0.9025073368248755  0.20891434864297048  1.0000
  H   H14       1.0  0.7876145837937686  0.09749887458313111  0.7910849424065277  1.0000
  H   H15       1.0  0.5298141311224072  0.5055667683077018  0.848020692004397  1.0000
  H   H16       1.0  0.4701875951644255  0.4944144714902876  0.15196809555368418  1.0000
  H   H17       1.0  0.5891318561333276  0.6587655029210495  0.8221012924962565  1.0000
  H   H18       1.0  0.4108623379893998  0.34121260266404363  0.1779070310864057  1.0000
  H   H19       1.0  0.6159433150538902  0.29452853383129  0.001701607336855184  1.0000
  H   H20       1.0  0.3840619583750566  0.7054291203127363  0.9983005392999259  1.0000
  H   H21       1.0  0.7398635334558533  0.19214004399982804  0.16754203502342338  1.0000
  H   H22       1.0  0.2601351575415124  0.8078369525131137  0.8324582021656325  1.0000
  H   H23       1.0  0.8955166375926068  0.5573762737570078  0.09573467898317035  1.0000
  H   H24       1.0  0.10446547166331033  0.44260282245660687  0.9042748563756503  1.0000
  H   H25       1.0  0.7702364153273322  0.661003410278802  0.9293291830642475  1.0000
  H   H26       1.0  0.22975823552656044  0.3389596117696385  0.07068041806719089  1.0000
  H   H27       1.0  0.9782350991135687  0.36541130101992547  0.24250177682528568  1.0000
  H   H28       1.0  0.021739769820044275  0.6345870535153182  0.7574963568001962  1.0000
  H   H29       1.0  0.8362172842802167  0.3145298172795563  0.3105738196511467  1.0000
  H   H30       1.0  0.16376725890911806  0.685460152035617  0.6894440639142162  1.0000
  H   H31       1.0  0.8113335310018215  0.5569790926515524  0.438339405561571  1.0000
  H   H32       1.0  0.1886770055436386  0.4430239172138144  0.5616651073991079  1.0000
  H   H33       1.0  0.6807160726887532  0.5024433074799575  0.44358217207594924  1.0000
  H   H34       1.0  0.31928910157182594  0.4975715074788526  0.5564206437788003  1.0000
  C   C1        1.0  0.6211866714587515  0.24255722823764367  0.5075955698728976  1.0000
  C   C2        1.0  0.3788234884411493  0.7574586036380851  0.49239496328514315  1.0000
  C   C3        1.0  0.518599868349348  0.2020292813099118  0.4602821947085046  1.0000
  C   C4        1.0  0.48140408317253497  0.7979875858301426  0.5397091957897829  1.0000
  C   C5        1.0  0.9715209323518224  0.044507212787053205  0.3436256432334801  1.0000
  C   C6        1.0  0.02848397620989114  0.9554817193413783  0.6563773310168699  1.0000
  C   C7        1.0  0.3834741879001058  0.2341522597508218  0.49585860773841256  1.0000
  C   C8        1.0  0.6165331345712985  0.7658592816964785  0.5041374972916728  1.0000
  C   C9        1.0  0.28061593230050624  0.20899973970915647  0.4510744705235723  1.0000
  C   C10       1.0  0.7193837143199744  0.79102043320718  0.5489296267036252  1.0000
  C   C11       1.0  0.3139915883009436  0.145542091552386  0.3705919189430987  1.0000
  C   C12       1.0  0.6860033409682131  0.8544854887025509  0.6293997119951626  1.0000
  C   C13       1.0  0.4504300952983512  0.10972460097497817  0.3373921082825079  1.0000
  C   C14       1.0  0.5495615294460023  0.8903147756803022  0.6625947685250609  1.0000
  C   C15       1.0  0.5532714249978739  0.1376470060387973  0.3806940388429112  1.0000
  C   C16       1.0  0.44672868188384746  0.8623837878372101  0.6192899297339594  1.0000
  C   C17       1.0  0.1368339543482193  0.25361499232272416  0.49079782736581723  1.0000
  C   C18       1.0  0.8631742172805585  0.7463891002429293  0.5092095108040836  1.0000
  C   C19       1.0  0.7028757439862902  0.42167886553857414  0.7066383690720669  1.0000
  C   C20       1.0  0.2971373565156625  0.5783090403112043  0.29336289497287277  1.0000
  C   C21       1.0  0.9071904506475833  0.4381401303583701  0.6952561674648123  1.0000
  C   C22       1.0  0.09281293720515292  0.5618648988382945  0.30473874401505435  1.0000
  C   C23       1.0  0.12859206448272434  0.9722035833409848  0.2409640303627612  1.0000
  C   C24       1.0  0.8714145211911911  0.027796161413391498  0.7590407386879789  1.0000
  C   C25       1.0  0.6203972457884814  0.5409375131344518  0.848899812148929  1.0000
  C   C26       1.0  0.3796035531408037  0.4590491925326389  0.15109877805673483  1.0000
  C   C27       1.0  0.6843781586590084  0.4849449069160697  0.9544305568856899  1.0000
  C   C28       1.0  0.3156061482729911  0.5150309040001985  0.045570798208736135  1.0000
  C   C29       1.0  0.6766136246899421  0.3530768209768525  0.022315401298158087  1.0000
  C   C30       1.0  0.3233771645643201  0.6468936453141084  0.9776853480710415  1.0000
  C   C31       1.0  0.7459021371543387  0.29585592330784033  0.1161659796749106  1.0000
  C   C32       1.0  0.2540792256455262  0.704122109138055  0.8838460507317265  1.0000
  C   C33       1.0  0.8252633248951826  0.36889344532492174  0.14332629818299125  1.0000
  C   C34       1.0  0.17472533310772312  0.6310867769709817  0.8566825918517013  1.0000
  C   C35       1.0  0.8316227367531753  0.5014261833198929  0.07596228805520153  1.0000
  C   C36       1.0  0.16835683445770397  0.4985540368444676  0.9240552155519239  1.0000
  C   C37       1.0  0.7612534218229638  0.5595015818567501  0.9824167287939645  1.0000
  C   C38       1.0  0.23873297019373754  0.44047969956774563  0.017592047570481408  1.0000
  C   C39       1.0  0.9039700009231099  0.3073243197898634  0.24332073043622418  1.0000
  C   C40       1.0  0.09600600807159757  0.6926687589961845  0.7566903177849014  1.0000
  I   I1        1.0  0.5063414452863526  0.011642097916841001  0.2174681799926432  1.0000
  I   I2        1.0  0.4936255812559125  0.9884400421355367  0.7824977018995014  1.0000
  N   N1        1.0  0.8213965112086825  0.38806437792090526  0.6556657181287447  1.0000
  N   N2        1.0  0.17861581504035226  0.6119406887648395  0.3443249880979025  1.0000
  N   N3        1.0  0.848290379030125  0.50030914144196  0.7669848346549415  1.0000
  N   N4        1.0  0.15170962279903216  0.49969048641517577  0.2330122659858347  1.0000
  N   N5        1.0  0.7186948740957816  0.48828965900127497  0.7735389441868676  1.0000
  N   N6        1.0  0.2813074431848221  0.5117088979414177  0.22645680068442428  1.0000
  N   N7        1.0  0.9797999234789999  0.1559500531119653  0.2617274839621047  1.0000
  N   N8        1.0  0.020198612056077446  0.8440431967779604  0.7382822055879785  1.0000
  N   N9        1.0  0.0801129876914572  0.11225799694850021  0.19502978141539265  1.0000
  N   N10       1.0  0.9198912662781211  0.8877460658599649  0.8049777930451185  1.0000
  N   N11       1.0  0.06497508353348279  0.9254880903871057  0.33263710519168643  1.0000
  N   N12       1.0  0.9350357594619965  0.07450411583799618  0.6673647601034176  1.0000
  O   O1        1.0  0.7485046202163873  0.19475507460744987  0.4836626698111672  1.0000
  O   O2        1.0  0.25150772534976823  0.805228526227893  0.5163403743611709  1.0000
  O   O3        1.0  0.5779669677413536  0.32234683199420994  0.5650991464055366  1.0000
  O   O4        1.0  0.42204684058239644  0.677685069324099  0.4348749467002122  1.0000
  O   O5        1.0  0.11157089827259628  0.3294678300358028  0.552162176213919  1.0000
  O   O6        1.0  0.8884361189276149  0.6705405408798555  0.44784203053415444  1.0000
  O   O7        1.0  0.04437100716076969  0.21302001710586185  0.46218947481358436  1.0000
  O   O8        1.0  0.9556343402281584  0.7869947566024817  0.5378081980020967  1.0000
  O   O9        1.0  0.7789662852139045  0.4789859669452881  0.4272969451132482  1.0000
  O   O10       1.0  0.22103791929043135  0.5210181076490129  0.5727120987870009  1.0000
