data_image0
_chemical_formula_structural       Zn2H32C48S4N8O8
_chemical_formula_sum              "Zn2 H32 C48 S4 N8 O8"
_cell_length_a       7.510024777159644
_cell_length_b       15.193888251926523
_cell_length_c       15.783118384601861
_cell_angle_alpha    64.2395595770338
_cell_angle_beta     76.2912939005161
_cell_angle_gamma    75.74285180017779

_space_group_name_H-M_alt    "P 1"
_space_group_IT_number       1

loop_
  _space_group_symop_operation_xyz
  'x, y, z'

loop_
  _atom_site_type_symbol
  _atom_site_label
  _atom_site_symmetry_multiplicity
  _atom_site_fract_x
  _atom_site_fract_y
  _atom_site_fract_z
  _atom_site_occupancy
  Zn  Zn1       1.0  0.008859953523810249  0.7502625693544901  0.2503228333099442  1.0000
  Zn  Zn2       1.0  0.991107052239407  0.24975376281256706  0.7496670791933935  1.0000
  H   H1        1.0  0.613534149181639  0.8256658893059593  0.023335353597118986  1.0000
  H   H2        1.0  0.4626146879581439  0.6741613514221143  0.4772077357068553  1.0000
  H   H3        1.0  0.3865854029154007  0.17428107365631001  0.9766909189103216  1.0000
  H   H4        1.0  0.5373872575545704  0.3258616709908964  0.5227630398782208  1.0000
  H   H5        1.0  0.08304910881368949  0.037884301896618004  0.14753398491937017  1.0000
  H   H6        1.0  0.26760419136597585  0.46219671827350334  0.35244607040530695  1.0000
  H   H7        1.0  0.9170070972121495  0.9620935368903928  0.8524696975237801  1.0000
  H   H8        1.0  0.7323917999597571  0.5378404470232924  0.6475180252020322  1.0000
  H   H9        1.0  0.0125767414082532  0.041035450415066094  0.04802688094205371  1.0000
  H   H10       1.0  0.10108712688429475  0.45897118590697517  0.45196968757671385  1.0000
  H   H11       1.0  0.9875512799469133  0.9589282799186023  0.9519666388596092  1.0000
  H   H12       1.0  0.8989138477584504  0.5410548548680721  0.5479987668785284  1.0000
  H   H13       1.0  0.0883995230090378  0.1470622759960207  0.0401511196173203  1.0000
  H   H14       1.0  0.27482800432027676  0.3530171850570484  0.4597955775365746  1.0000
  H   H15       1.0  0.9117250117206765  0.8529038622312796  0.9598374230264354  1.0000
  H   H16       1.0  0.725182497087154  0.6470092800800129  0.5401634121890523  1.0000
  H   H17       1.0  0.10121192336296754  0.7014339899809698  0.07911983460927975  1.0000
  H   H18       1.0  0.881322219296905  0.7994104931220888  0.42129414276624283  1.0000
  H   H19       1.0  0.8987519437046602  0.29856664015498785  0.9208790019689914  1.0000
  H   H20       1.0  0.11866865262160792  0.2005869950776145  0.5787098762930611  1.0000
  H   H21       1.0  0.9558400556637988  0.6231398231212353  0.0052217632786764395  1.0000
  H   H22       1.0  0.5838613439028323  0.8776539503158035  0.49496943909033303  1.0000
  H   H23       1.0  0.044129786025543176  0.37685921118719534  0.9947801935331668  1.0000
  H   H24       1.0  0.4161229496751773  0.12231720709579008  0.5050530466574585  1.0000
  H   H25       1.0  0.5088641497618768  0.5808646156907428  0.24342991627320737  1.0000
  H   H26       1.0  0.33322583696222097  0.9197567766309761  0.25644084106288995  1.0000
  H   H27       1.0  0.4910729253064759  0.4191552099314463  0.756563246598368  1.0000
  H   H28       1.0  0.6667240756261635  0.080227143980423  0.7435894332599985  1.0000
  H   H29       1.0  0.6780694403400387  0.6506068137742814  0.30941719735268697  1.0000
  H   H30       1.0  0.6380929230468976  0.8502110898186218  0.19062448478686617  1.0000
  H   H31       1.0  0.3218639000436667  0.3494289085861483  0.6905626577356827  1.0000
  H   H32       1.0  0.36187095182809503  0.1498060748609475  0.8093794050044136  1.0000
  C   C1        1.0  0.2703494465392494  0.8462401963789432  0.1035305071135681  1.0000
  C   C2        1.0  0.2193670472386486  0.6538444205124205  0.39721644233654985  1.0000
  C   C3        1.0  0.729739871285268  0.15372415207846046  0.8964816592319805  1.0000
  C   C4        1.0  0.7806002230528862  0.3461709986659399  0.6027775963404308  1.0000
  C   C5        1.0  0.38135486683970027  0.9292215991639451  0.04891849467399818  1.0000
  C   C6        1.0  0.3590954537214728  0.5707930002662137  0.4514080176246225  1.0000
  C   C7        1.0  0.6187605081526611  0.07072976186662319  0.9511071845492864  1.0000
  C   C8        1.0  0.6409049508713097  0.4292263645166869  0.5485630677697129  1.0000
  C   C9        1.0  0.3107031187376633  0.0288012025526854  0.03619573066522721  1.0000
  C   C10       1.0  0.37520980732076487  0.4712870406854036  0.46381948591872657  1.0000
  C   C11       1.0  0.6894026660403368  0.9711501949105918  0.9638290979678742  1.0000
  C   C12       1.0  0.6247980129429748  0.5287390069801887  0.5361488392923732  1.0000
  C   C13       1.0  0.5662685660515052  0.9032426546948213  0.012478246171916436  1.0000
  C   C14       1.0  0.482078348522414  0.5966495508143054  0.4877977145409814  1.0000
  C   C15       1.0  0.4338477520515909  0.0967058895713961  0.9875452412287942  1.0000
  C   C16       1.0  0.5179251782968279  0.4033729401437681  0.5121686512300769  1.0000
  C   C17       1.0  0.11331918874363817  0.0658551110357521  0.06962015529114748  1.0000
  C   C18       1.0  0.2480878809050822  0.4342210655510427  0.4303607919540937  1.0000
  C   C19       1.0  0.8867810519358771  0.9341094673240204  0.9303869044868804  1.0000
  C   C20       1.0  0.751916303937989  0.565803566718081  0.5696065793629543  1.0000
  C   C21       1.0  0.9710111365430125  0.6723388575234492  0.1121162877095756  1.0000
  C   C22       1.0  0.7551814209071424  0.8285448896853608  0.38816115434582327  1.0000
  C   C23       1.0  0.0289475865155779  0.3276691602431683  0.8878802791621891  1.0000
  C   C24       1.0  0.24480110076761002  0.1714613658512505  0.6118423228526666  1.0000
  C   C25       1.0  0.890011996385603  0.6298694623661089  0.07189443121298922  1.0000
  C   C26       1.0  0.5915116101605802  0.8709145733504686  0.4282696348668721  1.0000
  C   C27       1.0  0.10995317086725717  0.37013556559064387  0.9281038376273114  1.0000
  C   C28       1.0  0.4084693454633452  0.12907940738779902  0.571747614257184  1.0000
  C   C29       1.0  0.7195107578090115  0.5965999814557393  0.11739425542910445  1.0000
  C   C30       1.0  0.4334110348249496  0.9040720176940977  0.3825931469880358  1.0000
  C   C31       1.0  0.2804498309124526  0.4034064478688962  0.8826052513397186  1.0000
  C   C32       1.0  0.5665635241919629  0.09592460725799158  0.6174301366573332  1.0000
  C   C33       1.0  0.6415982284959585  0.6041775476947747  0.20461554676197113  1.0000
  C   C34       1.0  0.45037091628703496  0.8965409041810872  0.29533279455379347  1.0000
  C   C35       1.0  0.3583548968434442  0.3958391364861527  0.7953827474982658  1.0000
  C   C36       1.0  0.5495873834489727  0.1034593720055739  0.7046902574340945  1.0000
  C   C37       1.0  0.7340059276653292  0.6450657865200782  0.24123827548262963  1.0000
  C   C38       1.0  0.6202684862428426  0.8557722039974607  0.25881920527408653  1.0000
  C   C39       1.0  0.2659449034319579  0.35496238205471553  0.7587476138592137  1.0000
  C   C40       1.0  0.37969160441625854  0.1442397219955538  0.7411877538869971  1.0000
  C   C41       1.0  0.6285042410228241  0.5569667117771573  0.07320466642497081  1.0000
  C   C42       1.0  0.2586199266378342  0.9434601653497838  0.4267479017115006  1.0000
  C   C43       1.0  0.37145214283471967  0.44304431721345583  0.9267897341072809  1.0000
  C   C44       1.0  0.7413630302100955  0.05652734666935538  0.5732836602845452  1.0000
  C   C45       1.0  0.5812273874783357  0.5126723881339005  0.9674062784711309  1.0000
  C   C46       1.0  0.06124466781945871  0.9872646280707116  0.5327018109318827  1.0000
  C   C47       1.0  0.41872668493740395  0.4873414504830151  0.03259046867402294  1.0000
  C   C48       1.0  0.9387470730305054  0.012729573969167502  0.46732683609059916  1.0000
  S   S1        1.0  0.4144419144543079  0.5149369664443242  0.12787026500920723  1.0000
  S   S2        1.0  0.05739741253641023  0.98554535435526  0.37188539680452937  1.0000
  S   S3        1.0  0.5855235464233813  0.4850757368922913  0.8721193125958989  1.0000
  S   S4        1.0  0.9425813632412385  0.014446584531839302  0.6281449271998694  1.0000
  N   N1        1.0  0.8935934982430283  0.6807347301348656  0.19522937933292883  1.0000
  N   N2        1.0  0.76933340023578  0.8201249346488809  0.3050135190713518  1.0000
  N   N3        1.0  0.1063604584396103  0.3192838447608395  0.8047592183747341  1.0000
  N   N4        1.0  0.2306452577871454  0.17989325033752823  0.6949838971452209  1.0000
  N   N5        1.0  0.6979527754934765  0.5508914003095311  0.9900721485559743  1.0000
  N   N6        1.0  0.23877489632292992  0.9492414205931323  0.5100389622879505  1.0000
  N   N7        1.0  0.302006249121149  0.4491242352376048  0.009917016495570894  1.0000
  N   N8        1.0  0.7612050553689186  0.050747018938288584  0.4899881384076181  1.0000
  O   O1        1.0  0.13068366942686532  0.8630484684639654  0.16455316589978247  1.0000
  O   O2        1.0  0.15697462033823245  0.6372125771295172  0.33615537787118666  1.0000
  O   O3        1.0  0.8694210206930109  0.1369273333824239  0.8354636665490389  1.0000
  O   O4        1.0  0.8429666635596362  0.3628026200270185  0.6638435359444371  1.0000
  O   O5        1.0  0.3165923738634858  0.7672137312936302  0.09125955726958071  1.0000
  O   O6        1.0  0.17466790806012258  0.7327465653535512  0.40971494036904926  1.0000
  O   O7        1.0  0.6834458236822413  0.23276070980280394  0.9087385559768818  1.0000
  O   O8        1.0  0.8253109629382535  0.2672710810398797  0.5902782208238263  1.0000
