data_image0
_chemical_formula_structural       Ag4H20C20N12Cl4O12
_chemical_formula_sum              "Ag4 H20 C20 N12 Cl4 O12"
_cell_length_a       7.779011033016501
_cell_length_b       8.302629162039018
_cell_length_c       13.196816011062033
_cell_angle_alpha    89.9996897824324
_cell_angle_beta     89.99983536680263
_cell_angle_gamma    89.9998328201651

_space_group_name_H-M_alt    "P 1"
_space_group_IT_number       1

loop_
  _space_group_symop_operation_xyz
  'x, y, z'

loop_
  _atom_site_type_symbol
  _atom_site_label
  _atom_site_symmetry_multiplicity
  _atom_site_fract_x
  _atom_site_fract_y
  _atom_site_fract_z
  _atom_site_occupancy
  Ag  Ag1       1.0  0.8980567067371225  0.20651196196591567  0.768272836920616  1.0000
  Ag  Ag2       1.0  0.1019439543292719  0.20651175740059813  0.23172666952825693  1.0000
  Ag  Ag3       1.0  0.39805531068265765  0.7934883189006144  0.7317263286728704  1.0000
  Ag  Ag4       1.0  0.6019448193599859  0.7934876281121177  0.2682719404021867  1.0000
  H   H1        1.0  0.09455682716732382  0.8075751202618592  0.6193941643323413  1.0000
  H   H2        1.0  0.9054406882567676  0.8075762390771575  0.380604056860804  1.0000
  H   H3        1.0  0.5945564368171078  0.1924235866342485  0.8806055182111621  1.0000
  H   H4        1.0  0.4054416968278857  0.19242351597530674  0.1193940361260459  1.0000
  H   H5        1.0  0.25658407406366723  0.7970894317409788  0.533729441500043  1.0000
  H   H6        1.0  0.7434147593235707  0.7970890530279746  0.466268815335404  1.0000
  H   H7        1.0  0.7565845215436016  0.20290762498431292  0.9662714805833021  1.0000
  H   H8        1.0  0.24341486515918836  0.20291114775073993  0.0337287958700117  1.0000
  H   H9        1.0  0.13706851891397057  0.11863440227968171  0.5861713759066305  1.0000
  H   H10       1.0  0.8629285575821583  0.11863173819259741  0.4138284292454487  1.0000
  H   H11       1.0  0.6370696919669285  0.8813678009874336  0.9138267187028005  1.0000
  H   H12       1.0  0.3629340226385836  0.8813681337884988  0.0861727671820347  1.0000
  H   H13       1.0  0.3239368515003989  0.2545458719721055  0.45585394577786786  1.0000
  H   H14       1.0  0.6760623754101617  0.25454259802783236  0.544144639651563  1.0000
  H   H15       1.0  0.8239338095161557  0.7454553117316395  0.04414504379318631  1.0000
  H   H16       1.0  0.17606132711524936  0.7454607023944462  0.9558571773327529  1.0000
  H   H17       1.0  0.3486400330836333  0.5557227123580617  0.4586465108584222  1.0000
  H   H18       1.0  0.6513582617603646  0.5557207348920415  0.5413525663860881  1.0000
  H   H19       1.0  0.8486379366897553  0.4442784033713565  0.0413562254279611  1.0000
  H   H20       1.0  0.15135941751130844  0.4442838379307473  0.9586477771553702  1.0000
  C   C1        1.0  0.15463482151374558  0.24835473813853792  0.5849420561387575  1.0000
  C   C2        1.0  0.8453669955729097  0.24835331620609222  0.4150573080875333  1.0000
  C   C3        1.0  0.6546325335309646  0.7516450079342007  0.9150560085573007  1.0000
  C   C4        1.0  0.3453664404877515  0.7516466040938853  0.08494391825741589  1.0000
  C   C5        1.0  0.2572198961463385  0.3250980663009456  0.5132745513887684  1.0000
  C   C6        1.0  0.7427816834391479  0.32509630847545873  0.4867253097461274  1.0000
  C   C7        1.0  0.7572174982746559  0.6749038064367099  0.9867248540887418  1.0000
  C   C8        1.0  0.2427804277162124  0.6749099162158245  0.013276849079744602  1.0000
  C   C9        1.0  0.27084733142550016  0.4920644305397914  0.5143798257297547  1.0000
  C   C10       1.0  0.7291563024613905  0.4920627197280255  0.4856209834014393  1.0000
  C   C11       1.0  0.7708454556285177  0.507936200268027  0.9856203142964972  1.0000
  C   C12       1.0  0.22915170157884998  0.5079399291403206  0.014380440882796098  1.0000
  C   C13       1.0  0.18325875912107387  0.5811059052275453  0.5885605210254781  1.0000
  C   C14       1.0  0.8167420281794405  0.5811070021138819  0.4114407432097735  1.0000
  C   C15       1.0  0.6832575184498565  0.41889496653256236  0.9114390104299873  1.0000
  C   C16       1.0  0.3167424853420044  0.4188978146809461  0.0885605318826066  1.0000
  C   C17       1.0  0.08183324160261658  0.492207403696199  0.6569780190783732  1.0000
  C   C18       1.0  0.9181639642810779  0.4922076071932864  0.3430250628446814  1.0000
  C   C19       1.0  0.5818346284672276  0.507790133758114  0.8430224428960925  1.0000
  C   C20       1.0  0.418167671240397  0.50779090839729  0.15697755502178273  1.0000
  N   N1        1.0  0.067060406205691  0.33235926940921695  0.655579481061416  1.0000
  N   N2        1.0  0.9329398653930666  0.3323606246530275  0.3444203553884648  1.0000
  N   N3        1.0  0.5670612916031601  0.6676395131258204  0.8444202483152381  1.0000
  N   N4        1.0  0.43294051341203504  0.6676414636206333  0.15557920627274774  1.0000
  N   N5        1.0  0.20426757477800808  0.7475025219537558  0.5985482356248752  1.0000
  N   N6        1.0  0.7957326975752821  0.747502558344941  0.40145094751316185  1.0000
  N   N7        1.0  0.7042681829850964  0.2524970875723013  0.9014512600470609  1.0000
  N   N8        1.0  0.29573105025836094  0.2524974985067416  0.0985480900984612  1.0000
  N   N9        1.0  0.7312712024605262  0.9339642537081334  0.6368120027806512  1.0000
  N   N10       1.0  0.2687297783500355  0.9339636609746764  0.3631888198497251  1.0000
  N   N11       1.0  0.2312714204671806  0.06603528152687942  0.8631889624138225  1.0000
  N   N12       1.0  0.7687283898276505  0.0660352657220002  0.1368102637573898  1.0000
  Cl  Cl1       1.0  0.9733587782055437  0.5956742022634601  0.7508163857388581  1.0000
  Cl  Cl2       1.0  0.0266381074805437  0.5956764631760691  0.24918331346299988  1.0000
  Cl  Cl3       1.0  0.4733597874052933  0.40431984924731523  0.7491856826360817  1.0000
  Cl  Cl4       1.0  0.5266428325129054  0.4043207206168376  0.2508154247355634  1.0000
  O   O1        1.0  0.8793389076005198  0.9622925753012623  0.6021807478552503  1.0000
  O   O2        1.0  0.12066198554504841  0.962292091222473  0.3978184629699228  1.0000
  O   O3        1.0  0.379339045421787  0.0377053481822429  0.8978176918642263  1.0000
  O   O4        1.0  0.6206621380595648  0.037706038361506  0.10218011508103331  1.0000
  O   O5        1.0  0.678108878350109  0.0028793990398199  0.7170784457604996  1.0000
  O   O6        1.0  0.3218924129130372  0.0028757390134544  0.2829202373240634  1.0000
  O   O7        1.0  0.1781066039558823  0.9971214868853977  0.782921852226103  1.0000
  O   O8        1.0  0.8218928958918779  0.9971218370028295  0.2170772402153176  1.0000
  O   O9        1.0  0.631396301072897  0.8363485225252704  0.5909208811892341  1.0000
  O   O10       1.0  0.36860241080101724  0.8363496681186503  0.40908330427030387  1.0000
  O   O11       1.0  0.13139728004947673  0.16365008300985553  0.9090825273976719  1.0000
  O   O12       1.0  0.8686022281537547  0.16365018826838448  0.0909163669807214  1.0000
