data_image0
_chemical_formula_structural       Zn4H24C40N24
_chemical_formula_sum              "Zn4 H24 C40 N24"
_cell_length_a       7.2518610888921655
_cell_length_b       15.214417328889692
_cell_length_c       18.709952202179245
_cell_angle_alpha    90.00034018571662
_cell_angle_beta     89.9996137533434
_cell_angle_gamma    93.22390598903955

_space_group_name_H-M_alt    "P 1"
_space_group_IT_number       1

loop_
  _space_group_symop_operation_xyz
  'x, y, z'

loop_
  _atom_site_type_symbol
  _atom_site_label
  _atom_site_symmetry_multiplicity
  _atom_site_fract_x
  _atom_site_fract_y
  _atom_site_fract_z
  _atom_site_occupancy
  Zn  Zn1       1.0  0.35937562819894003  0.977206565634397  0.9207984787882707  1.0000
  Zn  Zn2       1.0  0.35938017543611533  0.4772074290376692  0.5791983195752337  1.0000
  Zn  Zn3       1.0  0.6406194996450837  0.5227941561990335  0.4208016146886138  1.0000
  Zn  Zn4       1.0  0.6406212888564371  0.0227950186375523  0.0792014554791649  1.0000
  H   H1        1.0  0.33788360367383075  0.6133642436032999  0.3323899226879945  1.0000
  H   H2        1.0  0.9459088114868311  0.9850084334957786  0.1728471336524819  1.0000
  H   H3        1.0  0.3378861416891753  0.11337295203964713  0.1676042184071633  1.0000
  H   H4        1.0  0.968626966435615  0.12980846836724416  0.7386348273199701  1.0000
  H   H5        1.0  0.9686351119782941  0.6297979613751253  0.7613693937011873  1.0000
  H   H6        1.0  0.054095000646455615  0.014993153182587099  0.8271511971812586  1.0000
  H   H7        1.0  0.6621185227882691  0.3866347093443849  0.6676094770913821  1.0000
  H   H8        1.0  0.018826620943627904  0.585828443833627  0.5274041309466142  1.0000
  H   H9        1.0  0.9811673847835181  0.4141718228384476  0.47259313094686917  1.0000
  H   H10       1.0  0.03136686113239761  0.3701996749575401  0.23863321292465398  1.0000
  H   H11       1.0  0.054109831857140016  0.5149912591836028  0.6728478981520922  1.0000
  H   H12       1.0  0.5903728047419108  0.6235438860280168  0.6573231054379818  1.0000
  H   H13       1.0  0.409623957313194  0.8764668837272681  0.15733229608343174  1.0000
  H   H14       1.0  0.5903794715128399  0.1235314113843344  0.842665500267934  1.0000
  H   H15       1.0  0.9811628825261778  0.9141715605958964  0.027407207488870697  1.0000
  H   H16       1.0  0.4710486664904395  0.26018340808737855  0.2525094813288575  1.0000
  H   H17       1.0  0.9458950525951481  0.4850076947434516  0.3271557774229734  1.0000
  H   H18       1.0  0.6621105453791786  0.8866266572933339  0.8323957158557815  1.0000
  H   H19       1.0  0.03137531336007269  0.8701918012027717  0.26136350351257676  1.0000
  H   H20       1.0  0.4710466253491887  0.7601899181043306  0.24749945523988254  1.0000
  H   H21       1.0  0.4096293983558113  0.3764557252436163  0.3426795011923431  1.0000
  H   H22       1.0  0.5289555777752569  0.23980969315634584  0.7524999445409861  1.0000
  H   H23       1.0  0.5289493995730012  0.7398162017352872  0.7474925908319392  1.0000
  H   H24       1.0  0.018829744161330108  0.0858287056047544  0.9725932612558521  1.0000
  C   C1        1.0  0.5802306703562365  0.30833447389849766  0.2683464819658639  1.0000
  C   C2        1.0  0.24142169508494496  0.19481724200021228  0.7390180799255502  1.0000
  C   C3        1.0  0.8810806159498197  0.4167503552261563  0.5155025164576443  1.0000
  C   C4        1.0  0.8067809697132731  0.23790902403378314  0.18835436406924086  1.0000
  C   C5        1.0  0.15445439381979045  0.5668039178714324  0.6901777075675993  1.0000
  C   C6        1.0  0.8067753304039655  0.7379060972100148  0.3116471777600225  1.0000
  C   C7        1.0  0.03814297886890467  0.8405497055972899  0.8793430882632264  1.0000
  C   C8        1.0  0.8455622750102808  0.9331932594909702  0.19017855655508237  1.0000
  C   C9        1.0  0.2802366330492987  0.09636948348374118  0.11561427438290649  1.0000
  C   C10       1.0  0.8810746237038743  0.9167466355103214  0.9845027873423146  1.0000
  C   C11       1.0  0.8886658339838007  0.8828993198754984  0.9149509411379099  1.0000
  C   C12       1.0  0.19321993102942514  0.7620912450702805  0.8116487770392808  1.0000
  C   C13       1.0  0.41977015371966786  0.6916651368944071  0.7316571936160726  1.0000
  C   C14       1.0  0.7585808146933175  0.8051850025105906  0.260980785386387  1.0000
  C   C15       1.0  0.45457069477575374  0.12699182794651157  0.8179756168293577  1.0000
  C   C16       1.0  0.19322258235706613  0.2620921959775444  0.6883522220232334  1.0000
  C   C17       1.0  0.111330776413304  0.11709963114814313  0.08505006207335698  1.0000
  C   C18       1.0  0.7197719626314694  0.4036404568758982  0.6156189310006325  1.0000
  C   C19       1.0  0.1544400814477527  0.0668076683920305  0.8098197742789635  1.0000
  C   C20       1.0  0.11891961197021322  0.0832556061171559  0.0154992848298292  1.0000
  C   C21       1.0  0.8925505544394741  0.3701099716932532  0.2608454045353099  1.0000
  C   C22       1.0  0.7197574493179247  0.9036314415104556  0.884385659886618  1.0000
  C   C23       1.0  0.4197763745912582  0.1916613697884415  0.768341271761642  1.0000
  C   C24       1.0  0.2414250976400041  0.6948133135680691  0.7609797956104954  1.0000
  C   C25       1.0  0.9618524825023159  0.15945121988293917  0.12065791495431447  1.0000
  C   C26       1.0  0.9618552146731149  0.6594474423608219  0.37934124019793086  1.0000
  C   C27       1.0  0.8925518693918094  0.8701085264159545  0.23915548546356996  1.0000
  C   C28       1.0  0.8455519463166541  0.43319569484734194  0.30982489905735366  1.0000
  C   C29       1.0  0.8886664533139595  0.38290285506184324  0.585052575593444  1.0000
  C   C30       1.0  0.7585768754795907  0.3051843227609438  0.23902174206553176  1.0000
  C   C31       1.0  0.5454343430413005  0.8730084425900912  0.1820232484745148  1.0000
  C   C32       1.0  0.11133283846888992  0.6170954386044442  0.41494575523820737  1.0000
  C   C33       1.0  0.5802284332476831  0.8083369258055412  0.23165652458793315  1.0000
  C   C34       1.0  0.03814423044332929  0.3405521679277896  0.6206560216868906  1.0000
  C   C35       1.0  0.2802261801255028  0.5963598112469769  0.3843793998372931  1.0000
  C   C36       1.0  0.4545698982090727  0.6269992072215941  0.682019238043182  1.0000
  C   C37       1.0  0.10745041039943003  0.12989174315588767  0.7608433798438908  1.0000
  C   C38       1.0  0.11891882915325883  0.5832492550679333  0.4844963488519056  1.0000
  C   C39       1.0  0.545429700191967  0.3730017197094284  0.3179828341188012  1.0000
  C   C40       1.0  0.10744873731219676  0.6298883219858166  0.7391566676207049  1.0000
  N   N1        1.0  0.6218074385598485  0.9483482931232247  0.93187506014236  1.0000
  N   N2        1.0  0.6808466363881677  0.18027734019482722  0.1593035390869062  1.0000
  N   N3        1.0  0.7803065563485987  0.6300039843870449  0.384610793116444  1.0000
  N   N4        1.0  0.7803063633575605  0.13000509362621665  0.115391363982539  1.0000
  N   N5        1.0  0.9833861992886741  0.7273655951691039  0.3339933185217845  1.0000
  N   N6        1.0  0.319152962021775  0.8197235867325359  0.8406974641252701  1.0000
  N   N7        1.0  0.7213130551860515  0.9565006393154079  0.9939526077387555  1.0000
  N   N8        1.0  0.2786814658407195  0.5434939996954283  0.49394823360677254  1.0000
  N   N9        1.0  0.2196933883815291  0.869997149925304  0.8846091047577077  1.0000
  N   N10       1.0  0.6752858138665233  0.9348596232749387  0.1610178309800716  1.0000
  N   N11       1.0  0.3191531862065347  0.31972302154373006  0.6592976072796545  1.0000
  N   N12       1.0  0.32471961986451003  0.5651432752998248  0.661013324254796  1.0000
  N   N13       1.0  0.3781852057816693  0.5516446041264373  0.43186939774726335  1.0000
  N   N14       1.0  0.2196915864128215  0.36999628373399657  0.6153870032465675  1.0000
  N   N15       1.0  0.3781893251842092  0.05165197451727009  0.06812327069735598  1.0000
  N   N16       1.0  0.016615431407579692  0.7726305855974615  0.8339986350039579  1.0000
  N   N17       1.0  0.6808464888791192  0.6802785636911466  0.3407017925092859  1.0000
  N   N18       1.0  0.3247162359332307  0.0651386713597617  0.8389815687978128  1.0000
  N   N19       1.0  0.6218158483168921  0.4483569815908268  0.5681300020398865  1.0000
  N   N20       1.0  0.6752839622505676  0.4348563364523556  0.3389887478988313  1.0000
  N   N21       1.0  0.2786823295406435  0.04349962784452539  0.006046257577665398  1.0000
  N   N22       1.0  0.7213181325781336  0.4565069272282827  0.5060517006555756  1.0000
  N   N23       1.0  0.983382711318207  0.2273696825381961  0.1660034371583237  1.0000
  N   N24       1.0  0.016614548187234783  0.2726333572852439  0.6660028744099262  1.0000
