data_image0
_chemical_formula_structural       Al4H28C48O22
_chemical_formula_sum              "Al4 H28 C48 O22"
_cell_length_a       6.694177084224776
_cell_length_b       17.142965906138084
_cell_length_c       19.55923452638466
_cell_angle_alpha    108.13799986259514
_cell_angle_beta     89.99969081668925
_cell_angle_gamma    89.9994710750216

_space_group_name_H-M_alt    "P 1"
_space_group_IT_number       1

loop_
  _space_group_symop_operation_xyz
  'x, y, z'

loop_
  _atom_site_type_symbol
  _atom_site_label
  _atom_site_symmetry_multiplicity
  _atom_site_fract_x
  _atom_site_fract_y
  _atom_site_fract_z
  _atom_site_occupancy
  Al  Al1       1.0  0.8993040639401072  0.5021081332569821  0.5015885454994518  1.0000
  Al  Al2       1.0  0.3993024064083812  0.4978956848789124  0.4984089878395466  1.0000
  Al  Al3       1.0  0.36506231409470746  0.9984858196990982  0.9994121856707066  1.0000
  Al  Al4       1.0  0.8650607572861516  0.0015168293194988997  0.0005865322512264001  1.0000
  H   H1        1.0  0.42597190200712726  0.1893791653882388  0.19006344889612592  1.0000
  H   H2        1.0  0.9259749560163825  0.810604925361197  0.8099364832744415  1.0000
  H   H3        1.0  0.9670972482936547  0.2006490350379977  0.2013175712144175  1.0000
  H   H4        1.0  0.4670942220269367  0.7993580211217618  0.7986818937376369  1.0000
  H   H5        1.0  0.43908461542845595  0.30176822610503246  0.30490864127673933  1.0000
  H   H6        1.0  0.9390671065549865  0.6982220646098866  0.6950891574293152  1.0000
  H   H7        1.0  0.978968767307606  0.30301802963286656  0.30138307718399204  1.0000
  H   H8        1.0  0.47895228150522934  0.6969742599354658  0.6986194229441693  1.0000
  H   H9        1.0  0.8591177132303682  0.41508837119928893  0.6748625388456091  1.0000
  H   H10       1.0  0.35910546379317754  0.5849170566658513  0.3251356905054124  1.0000
  H   H11       1.0  0.43422138538363697  0.3138691810139349  0.5977440205052602  1.0000
  H   H12       1.0  0.9342039729455391  0.6861330007780067  0.40225605291752237  1.0000
  H   H13       1.0  0.5860672127201809  0.20639491822976908  0.6434111357348937  1.0000
  H   H14       1.0  0.08606344930765888  0.7936034870882552  0.35658640084020027  1.0000
  H   H15       1.0  0.5750098237205918  0.12245389904551016  0.7257968018570011  1.0000
  H   H16       1.0  0.07500609613042998  0.877547842661741  0.2742034871323257  1.0000
  H   H17       1.0  0.4078028305141075  0.08525537598690386  0.8252531373569737  1.0000
  H   H18       1.0  0.9078005011837431  0.9147492838370894  0.17474866315521353  1.0000
  H   H19       1.0  0.8336850784512818  0.1873655356044566  0.903038553563512  1.0000
  H   H20       1.0  0.3336939103238663  0.8126373417756623  0.0969586706979086  1.0000
  H   H21       1.0  0.6908964010621119  0.37804809938822354  0.7747788427717809  1.0000
  H   H22       1.0  0.1908955803930183  0.6219547554022213  0.2252162138280838  1.0000
  H   H23       1.0  0.5467111311530174  0.3260840619642805  0.8586609803267464  1.0000
  H   H24       1.0  0.0467197902629337  0.6739217053185554  0.14133194132647733  1.0000
  H   H25       1.0  0.6555005861249229  0.39216203983580294  0.4803251064102483  1.0000
  H   H26       1.0  0.1554970326158625  0.607841629070414  0.519680273475373  1.0000
  H   H27       1.0  0.6103041893218729  0.10640002081235878  0.011449088979674098  1.0000
  H   H28       1.0  0.11030741297715707  0.8936041489263501  0.9885553857618489  1.0000
  C   C1        1.0  0.6485115190583739  0.5823903743855752  0.4192502949352955  1.0000
  C   C2        1.0  0.14851724309502862  0.41761287344321824  0.5807486714069654  1.0000
  C   C3        1.0  0.6456745526266943  0.6133453222982793  0.6113372498834336  1.0000
  C   C4        1.0  0.1456761404506963  0.3866534164602839  0.38866382897519003  1.0000
  C   C5        1.0  0.28396752360892913  0.21431153748028453  0.21507975129252088  1.0000
  C   C6        1.0  0.7839593605365351  0.7856802292045445  0.784923445362118  1.0000
  C   C7        1.0  0.1156515968519756  0.18020054158422738  0.18044699051623778  1.0000
  C   C8        1.0  0.6156633375569243  0.8197982318885052  0.8195520517570571  1.0000
  C   C9        1.0  0.2916403720390476  0.280962926266092  0.28253306841961745  1.0000
  C   C10       1.0  0.7916341790002264  0.7190313780472478  0.7174674434795137  1.0000
  C   C11       1.0  0.1313945758485673  0.31963570335807395  0.31989813998084315  1.0000
  C   C12       1.0  0.6313715731872378  0.6803574882328292  0.6801018654434899  1.0000
  C   C13       1.0  0.9823399997678164  0.37456302654496904  0.6775971149516451  1.0000
  C   C14       1.0  0.48233169203005827  0.6254419923836207  0.32240173970863134  1.0000
  C   C15       1.0  0.146954654176632  0.3688556414731038  0.6321222210193652  1.0000
  C   C16       1.0  0.6469445224074163  0.6311476162493717  0.36787675104540796  1.0000
  C   C17       1.0  0.30733768663218797  0.31699867670852905  0.6334654326006159  1.0000
  C   C18       1.0  0.8073238440136519  0.6830041222315729  0.36653456686170216  1.0000
  C   C19       1.0  0.30318632412934216  0.2680867080620004  0.679202344591296  1.0000
  C   C20       1.0  0.803179937486682  0.7319139911439833  0.32079657750838914  1.0000
  C   C21       1.0  0.1374045247069233  0.27485841372830316  0.7268291640201028  1.0000
  C   C22       1.0  0.6374019391699192  0.7251433636569188  0.2731687559538755  1.0000
  C   C23       1.0  0.9762032770448668  0.3296399974125706  0.726541868531477  1.0000
  C   C24       1.0  0.4761965553762977  0.6703623490907872  0.273455910508943  1.0000
  C   C25       1.0  0.4599139821962055  0.2112042431029622  0.6798422886737328  1.0000
  C   C26       1.0  0.9599097774409701  0.7887946648033973  0.32015712515097755  1.0000
  C   C27       1.0  0.45368169167234373  0.16475257273544489  0.7252340587902779  1.0000
  C   C28       1.0  0.9536775037583779  0.8352489307171422  0.2747643295234283  1.0000
  C   C29       1.0  0.2908038986348842  0.17129536857571986  0.7744100074155681  1.0000
  C   C30       1.0  0.7908095071722412  0.8287077499323342  0.2255889820591932  1.0000
  C   C31       1.0  0.1311632655438046  0.226875811851535  0.7744280497389511  1.0000
  C   C32       1.0  0.6311696710892604  0.7731285010958686  0.22557206151900291  1.0000
  C   C33       1.0  0.9661318078587228  0.233297109209353  0.8223001758614713  1.0000
  C   C34       1.0  0.46613858993070767  0.7667062863695052  0.17769711307040842  1.0000
  C   C35       1.0  0.8083928234522944  0.2902806020177949  0.8215164073795834  1.0000
  C   C36       1.0  0.30839742293559874  0.7097232356446028  0.17847984449614526  1.0000
  C   C37       1.0  0.8135734619546182  0.3362763082569841  0.7754639935539843  1.0000
  C   C38       1.0  0.3135735466008427  0.6637276817496058  0.22453277735679925  1.0000
  C   C39       1.0  0.2845237738950104  0.12593029985269774  0.8229516348248325  1.0000
  C   C40       1.0  0.7845249807259265  0.8740730434619122  0.17704791559724242  1.0000
  C   C41       1.0  0.12036729044778131  0.1316986960653068  0.8684964671677733  1.0000
  C   C42       1.0  0.6203662773567729  0.8683039593838018  0.13150205861025907  1.0000
  C   C43       1.0  0.9607883695190222  0.18415076225328159  0.867599998150794  1.0000
  C   C44       1.0  0.46079512842045733  0.8158530372813431  0.13239838626748926  1.0000
  C   C45       1.0  0.6174146066455036  0.8868999284172715  0.8885770166991521  1.0000
  C   C46       1.0  0.1174093475504705  0.11310314589117351  0.11142098744062422  1.0000
  C   C47       1.0  0.6168677454619312  0.9174664608323224  0.0805162829132797  1.0000
  C   C48       1.0  0.11686570875696127  0.08253683201518676  0.9194806528037989  1.0000
  O   O1        1.0  0.47821898599102036  0.585646319959764  0.5824517145908388  1.0000
  O   O2        1.0  0.9782291408960828  0.4143623865720797  0.4175391463309097  1.0000
  O   O3        1.0  0.8178929860197998  0.5677689072375854  0.44243012072970345  1.0000
  O   O4        1.0  0.3179107996539939  0.4322450099123216  0.5575769166448481  1.0000
  O   O5        1.0  0.8181218070496781  0.5888413089778622  0.5858519893028813  1.0000
  O   O6        1.0  0.3181286356314175  0.4111537532878415  0.4141511155917854  1.0000
  O   O7        1.0  0.9792541248497598  0.4398870040255646  0.5635587146978766  1.0000
  O   O8        1.0  0.47924205073834253  0.560107649732373  0.4364320097949843  1.0000
  O   O9        1.0  0.6509199691568881  0.4513298975890264  0.4926841761310499  1.0000
  O   O10       1.0  0.15091595596051377  0.5486729948780321  0.5073120970867321  1.0000
  O   O11       1.0  0.7855113087674397  0.9391289547369724  0.0623168552099571  1.0000
  O   O12       1.0  0.2855122965709071  0.06087136095523964  0.9376773008180807  1.0000
  O   O13       1.0  0.44559326048926806  0.9116261387574695  0.91502689759119  1.0000
  O   O14       1.0  0.9455832139195194  0.08837434039610768  0.08497687239641752  1.0000
  O   O15       1.0  0.44665120882351056  0.932994572638833  0.058544020371996894  1.0000
  O   O16       1.0  0.9466569689462359  0.06701138222957329  0.9414587250575509  1.0000
  O   O17       1.0  0.2857231958372494  0.0859550191267147  0.0835422550049927  1.0000
  O   O18       1.0  0.7857321279323771  0.9140507176421763  0.9164540963520269  1.0000
  O   O19       1.0  0.6137688367574157  0.04875263152260349  0.007526321912472199  1.0000
  O   O20       1.0  0.1137711750781634  0.9512510510753313  0.9924717010746419  1.0000
  O   O21       1.0  0.6555670886959531  0.29353968455814783  0.8686933763665934  1.0000
  O   O22       1.0  0.1555784198625432  0.7064638237530046  0.13129966857834316  1.0000
