data_image0
_chemical_formula_structural       Li2B2H28C32O14
_chemical_formula_sum              "Li2 B2 H28 C32 O14"
_cell_length_a       6.563897540829614
_cell_length_b       9.016041770055166
_cell_length_c       13.56323937520261
_cell_angle_alpha    90.00036777251792
_cell_angle_beta     94.38437359752305
_cell_angle_gamma    89.99982537607295

_space_group_name_H-M_alt    "P 1"
_space_group_IT_number       1

loop_
  _space_group_symop_operation_xyz
  'x, y, z'

loop_
  _atom_site_type_symbol
  _atom_site_label
  _atom_site_symmetry_multiplicity
  _atom_site_fract_x
  _atom_site_fract_y
  _atom_site_fract_z
  _atom_site_occupancy
  Li  Li1       1.0  0.9969351932505788  0.5070579571466285  0.5858750506902197  1.0000
  Li  Li2       1.0  0.0030553218841547014  0.0070538569237754995  0.41412536288292773  1.0000
  B   B1        1.0  0.24321650642357182  0.5358610235408747  0.4098450032438592  1.0000
  B   B2        1.0  0.7567723602296468  0.035859219284070314  0.5901540020370248  1.0000
  H   H1        1.0  0.4608221212523561  0.31743971284453926  0.5587292482275856  1.0000
  H   H2        1.0  0.5391778808346857  0.8174356405338231  0.44126619034602044  1.0000
  H   H3        1.0  0.6059517796739015  0.3177198359629472  0.720676303250727  1.0000
  H   H4        1.0  0.3940390609250599  0.817722284987788  0.27931955570354466  1.0000
  H   H5        1.0  0.6952558058359841  0.44527426494186534  0.8807802139818435  1.0000
  H   H6        1.0  0.3047452602433651  0.9452798063099267  0.11921654713590608  1.0000
  H   H7        1.0  0.6002373004302086  0.7111583230534396  0.9006552194624504  1.0000
  H   H8        1.0  0.3997753743967962  0.21116144897830222  0.0993461017048176  1.0000
  H   H9        1.0  0.41760672099577084  0.8468825909978295  0.7597551389404418  1.0000
  H   H10       1.0  0.582403947278472  0.34688224113561017  0.24024890654842324  1.0000
  H   H11       1.0  0.33912183704493504  0.7203663002502196  0.5996936644835529  1.0000
  H   H12       1.0  0.6608816578039622  0.22036177161041343  0.4003095892737677  1.0000
  H   H13       1.0  0.8309157499689094  0.5427441636787479  0.2788366014210197  1.0000
  H   H14       1.0  0.1690760752520646  0.0427481980899742  0.7211551631778477  1.0000
  H   H15       1.0  0.7829599655730206  0.7456263687980994  0.1394067100398146  1.0000
  H   H16       1.0  0.21704487780408507  0.2456205461680341  0.8605878513402561  1.0000
  H   H17       1.0  0.8838305785424224  0.8126108657702676  0.9722331661335488  1.0000
  H   H18       1.0  0.1161954594838619  0.31260060158760433  0.0277675795770449  1.0000
  H   H19       1.0  0.19804279404236522  0.7061532714450892  0.9092835356774388  1.0000
  H   H20       1.0  0.8019821443464678  0.2061454733654102  0.09072040173376189  1.0000
  H   H21       1.0  0.423157086773557  0.5423008056258497  0.018279157464576205  1.0000
  H   H22       1.0  0.5768593022159791  0.04229981230506039  0.9817252549140748  1.0000
  H   H23       1.0  0.32569710710176036  0.48093887637764965  0.18821294379126396  1.0000
  H   H24       1.0  0.6743054058433631  0.9809380676626916  0.8117891815862919  1.0000
  H   H25       1.0  0.930303612225245  0.7767144586945703  0.6700952517249448  1.0000
  H   H26       1.0  0.0696920208722887  0.27671051785338113  0.3299064961232291  1.0000
  H   H27       1.0  0.870239350339766  0.6379077781119025  0.7300585271411748  1.0000
  H   H28       1.0  0.1297598717817579  0.13790091583543068  0.2699449618730725  1.0000
  C   C1        1.0  0.5776324796210092  0.49665308383819734  0.4745854283910306  1.0000
  C   C2        1.0  0.4223622997568341  0.9966467403455256  0.5254128093511596  1.0000
  C   C3        1.0  0.4344176890728164  0.4375456201070449  0.5499936045902487  1.0000
  C   C4        1.0  0.5655742522550185  0.9375426843015334  0.4500042810972928  1.0000
  C   C5        1.0  0.4739450180662531  0.5123050239309705  0.649213518238291  1.0000
  C   C6        1.0  0.5260515750972488  0.0123036359063562  0.35078565431270187  1.0000
  C   C7        1.0  0.5695880423505102  0.43463929371670673  0.7291144266228005  1.0000
  C   C8        1.0  0.4304069655597473  0.9346404750438072  0.2708835530945137  1.0000
  C   C9        1.0  0.6172028923840998  0.5060668069766265  0.8193886581633267  1.0000
  C   C10       1.0  0.3827967724476978  0.0060696391191755  0.1806098570086334  1.0000
  C   C11       1.0  0.5640144272894717  0.6551400942257148  0.8303208241880071  1.0000
  C   C12       1.0  0.4359938701701368  0.1551427079534804  0.1696801047135708  1.0000
  C   C13       1.0  0.4627855472227296  0.7314992748210403  0.7513517955554647  1.0000
  C   C14       1.0  0.537222490409114  0.23149799288928116  0.24865166370484806  1.0000
  C   C15       1.0  0.41956646849374124  0.6608658961084329  0.6609057976830144  1.0000
  C   C16       1.0  0.5804341681742073  0.16086427984033244  0.3390948897487363  1.0000
  C   C17       1.0  0.0249677071000249  0.7167473961225282  0.34018356505692543  1.0000
  C   C18       1.0  0.9750143883414497  0.21674912096211327  0.6598167182188561  1.0000
  C   C19       1.0  0.9927742179803404  0.575301511801392  0.2781223178507304  1.0000
  C   C20       1.0  0.007217537612220301  0.07530257140844301  0.7218747450283445  1.0000
  C   C21       1.0  0.04753124706737571  0.6065662933814411  0.1734209383406409  1.0000
  C   C22       1.0  0.9524710888841241  0.1065641194862295  0.8265766260257265  1.0000
  C   C23       1.0  0.9219585139050964  0.6995837128360877  0.11231357453274883  1.0000
  C   C24       1.0  0.07804805586989971  0.19957844685998793  0.8876837985011647  1.0000
  C   C25       1.0  0.9783159207835865  0.7366848494090876  0.01836697947052811  1.0000
  C   C26       1.0  0.021704270913652103  0.23667616794467966  0.9816317629949225  1.0000
  C   C27       1.0  0.1574317482281629  0.6794745580973469  0.9836731134709993  1.0000
  C   C28       1.0  0.8425856487825456  0.1794681783654184  0.01633044764633241  1.0000
  C   C29       1.0  0.2828977143202067  0.5873186196135479  0.044673790928136704  1.0000
  C   C30       1.0  0.7171138961734799  0.08731485537673223  0.9553276994131893  1.0000
  C   C31       1.0  0.2289097393991426  0.5519787902737647  0.1396014303870103  1.0000
  C   C32       1.0  0.7710943616345532  0.0519773280447851  0.8603996476232112  1.0000
  O   O1        1.0  0.9533192147527102  0.6684396804941811  0.677007143629716  1.0000
  O   O2        1.0  0.04668142997574881  0.16843461342163124  0.3229972630342743  1.0000
  O   O3        1.0  0.7649261330771749  0.5032944300939094  0.4851988417305578  1.0000
  O   O4        1.0  0.23505977615189982  0.0032852538183832003  0.5147977092754417  1.0000
  O   O5        1.0  0.4686133483487324  0.5420951492986675  0.3938468982528818  1.0000
  O   O6        1.0  0.5313709043243335  0.042089543322937614  0.6061512362437256  1.0000
  O   O7        1.0  0.2336754878012499  0.463936357869102  0.5051304008242425  1.0000
  O   O8        1.0  0.7663148355156155  0.9639356416675752  0.4948682791679815  1.0000
  O   O9        1.0  0.940324503612402  0.8366271074021158  0.3239463285765325  1.0000
  O   O10       1.0  0.0596571356366482  0.33662872481291833  0.6760529784308389  1.0000
  O   O11       1.0  0.16719783122349705  0.6929721930516451  0.4129653643438829  1.0000
  O   O12       1.0  0.8327828382851977  0.19297463306376986  0.5870362420369943  1.0000
  O   O13       1.0  0.1202643645156201  0.4677721272586625  0.3284720018169481  1.0000
  O   O14       1.0  0.8797274582150294  0.9677728624536993  0.6715252721063364  1.0000
