data_image0
_chemical_formula_structural       Zn2H38C38N4O10
_chemical_formula_sum              "Zn2 H38 C38 N4 O10"
_cell_length_a       9.236816921493807
_cell_length_b       10.340457609972768
_cell_length_c       11.518006560067413
_cell_angle_alpha    90.78308053756517
_cell_angle_beta     113.65659058931831
_cell_angle_gamma    101.02630096429908

_space_group_name_H-M_alt    "P 1"
_space_group_IT_number       1

loop_
  _space_group_symop_operation_xyz
  'x, y, z'

loop_
  _atom_site_type_symbol
  _atom_site_label
  _atom_site_symmetry_multiplicity
  _atom_site_fract_x
  _atom_site_fract_y
  _atom_site_fract_z
  _atom_site_occupancy
  Zn  Zn1       1.0  0.30222350783994756  0.46028070637061813  0.3943980231872145  1.0000
  Zn  Zn2       1.0  0.6977736717897471  0.5397206678898739  0.6055990683916403  1.0000
  H   H1        1.0  0.5115623154794448  0.21128851969826465  0.21442005461277344  1.0000
  H   H2        1.0  0.488432928871795  0.7887098956601123  0.7855781383676044  1.0000
  H   H3        1.0  0.9886186385547829  0.5260853434165897  0.3776782822041936  1.0000
  H   H4        1.0  0.011376725565241894  0.4739259786954335  0.6223236325943373  1.0000
  H   H5        1.0  0.7043278329876302  0.4033621776365736  0.3068026168242284  1.0000
  H   H6        1.0  0.2956708572956614  0.5966401783086822  0.6931966860534116  1.0000
  H   H7        1.0  0.8462391716033224  0.060407137174735205  0.20124494601927972  1.0000
  H   H8        1.0  0.15376196501626532  0.9395991743929952  0.7987603746583289  1.0000
  H   H9        1.0  0.12776303991073232  0.19795169743995447  0.2793008861773315  1.0000
  H   H10       1.0  0.872242752331793  0.8020545718310788  0.7207041091030459  1.0000
  H   H11       1.0  0.32517086013177726  0.0400436148797851  0.21133150351526803  1.0000
  H   H12       1.0  0.6748295817481278  0.959951782187254  0.7886716905466001  1.0000
  H   H13       1.0  0.27981700179991253  0.030628767527254314  0.04790103641301608  1.0000
  H   H14       1.0  0.720192720477975  0.9693705176613678  0.952103299577146  1.0000
  H   H15       1.0  0.3492345103016987  0.7980246206355802  0.21096541740346444  1.0000
  H   H16       1.0  0.6507679275790748  0.2019697634297586  0.789035760089284  1.0000
  H   H17       1.0  0.2910470615520211  0.7911299534309181  0.045696404320814565  1.0000
  H   H18       1.0  0.7089526559842767  0.20886743183324807  0.9543039971676489  1.0000
  H   H19       1.0  0.08739053275181866  0.8660766048519689  0.18130435801070624  1.0000
  H   H20       1.0  0.9126122989059339  0.13392372914572093  0.8186952995045117  1.0000
  H   H21       1.0  0.02430716770795273  0.8428709760461859  0.0147040400240428  1.0000
  H   H22       1.0  0.9756972950749013  0.15712636935477783  0.9852986687326746  1.0000
  H   H23       1.0  0.10886729061825666  0.6294894144671023  0.19871735855215886  1.0000
  H   H24       1.0  0.8911389548797074  0.37050990284963353  0.8012876602635115  1.0000
  H   H25       1.0  0.9104115540589247  0.64669214926289  0.10189873930200831  1.0000
  H   H26       1.0  0.0895914867206145  0.3533081904129745  0.8981070610993525  1.0000
  H   H27       1.0  0.15594547091738778  0.585991888671444  0.002871345665639089  1.0000
  H   H28       1.0  0.8440545186804086  0.41400648682373026  0.9971291545829997  1.0000
  H   H29       1.0  0.9586925920107416  0.6053993224817589  0.9070238867385425  1.0000
  H   H30       1.0  0.0413077891467353  0.3946000464891029  0.09298022249092948  1.0000
  H   H31       1.0  0.5251199640369038  0.6670948558418318  0.1683754693047632  1.0000
  H   H32       1.0  0.4748818114666449  0.33290647449963023  0.8316195417665354  1.0000
  H   H33       1.0  0.3783237207355228  0.2631580324120009  0.997866135073124  1.0000
  H   H34       1.0  0.6216799280800983  0.7368412987525802  0.002131148444696928  1.0000
  H   H35       1.0  0.7359717017758028  0.9064015975166838  0.5182063771445086  1.0000
  H   H36       1.0  0.2640271697014214  0.09359281624325891  0.4817928505082491  1.0000
  H   H37       1.0  0.2417556421287514  0.8472221585328512  0.4706262100842479  1.0000
  H   H38       1.0  0.758248760905019  0.1527751852457726  0.5293747435621369  1.0000
  C   C1        1.0  0.9523734213798886  0.4224530791849902  0.3390302511011639  1.0000
  C   C2        1.0  0.0476187091205134  0.5775552909488367  0.6609688974499617  1.0000
  C   C3        1.0  0.7940415051336698  0.3541937044449028  0.29813459337238857  1.0000
  C   C4        1.0  0.20594878387588267  0.6458087186246573  0.701857819731515  1.0000
  C   C5        1.0  0.7502469676916161  0.220225544120119  0.24754895155269438  1.0000
  C   C6        1.0  0.24975326311981413  0.7797777943210634  0.7524534401788897  1.0000
  C   C7        1.0  0.8737084989302203  0.16257181876616764  0.2405756391996191  1.0000
  C   C8        1.0  0.12628949591066174  0.8374364997135333  0.7594244189377122  1.0000
  C   C9        1.0  0.02953734638924029  0.23834100551655274  0.28460894005355897  1.0000
  C   C10       1.0  0.9704616448567618  0.7616663149970435  0.715394009417359  1.0000
  C   C11       1.0  0.5229679215269556  0.022833805208662707  0.16413924377877  1.0000
  C   C12       1.0  0.4770414657497071  0.977163505196103  0.8358710375771847  1.0000
  C   C13       1.0  0.34450650830980584  0.9878052769009217  0.13658326857633796  1.0000
  C   C14       1.0  0.655502971781118  0.0121930188678618  0.8634218462088155  1.0000
  C   C15       1.0  0.27687452453497496  0.8398827519040214  0.12461425612675466  1.0000
  C   C16       1.0  0.7231255855343334  0.16011165330966298  0.8753870840646056  1.0000
  C   C17       1.0  0.09963541534507668  0.8087761147184338  0.10540305944483917  1.0000
  C   C18       1.0  0.9003672338747889  0.19122323148174303  0.8945991319756884  1.0000
  C   C19       1.0  0.03424240033817944  0.6614930616972005  0.1067948244500485  1.0000
  C   C20       1.0  0.9657602787562283  0.33850628531413923  0.8932082445256382  1.0000
  C   C21       1.0  0.03279221470840807  0.5731713720333644  0.9987176915042536  1.0000
  C   C22       1.0  0.9672078943875633  0.4268270067064819  0.0012863189650361095  1.0000
  C   C23       1.0  0.3895696482121309  0.418368870914371  0.19506053929946174  1.0000
  C   C24       1.0  0.610422999456773  0.5816295582918513  0.8049299183830596  1.0000
  C   C25       1.0  0.44600750310129195  0.4607033507616549  0.09392673950285506  1.0000
  C   C26       1.0  0.5539839955991468  0.5392950894243286  0.9060642383065626  1.0000
  C   C27       1.0  0.5143485897012781  0.5943087829719218  0.09459374851322618  1.0000
  C   C28       1.0  0.48564856102721177  0.4056886169512525  0.90539979523254  1.0000
  C   C29       1.0  0.4320647037649721  0.36677023370988593  0.9989416294821323  1.0000
  C   C30       1.0  0.5679294545575219  0.6332291771810931  0.001051039499167043  1.0000
  C   C31       1.0  0.47768899727187636  0.7171220781055254  0.49121058958474606  1.0000
  C   C32       1.0  0.5223096053344704  0.28287232835391063  0.5087807400715361  1.0000
  C   C33       1.0  0.48803119655829613  0.862925365035075  0.494672609007118  1.0000
  C   C34       1.0  0.5119656821086878  0.13707104465707692  0.505320835978466  1.0000
  C   C35       1.0  0.6337619626215059  0.9487417691827036  0.5109086817947028  1.0000
  C   C36       1.0  0.36623412876214445  0.051255644153734216  0.4890880147434442  1.0000
  C   C37       1.0  0.35413700482249766  0.9149890494255359  0.48346478192826214  1.0000
  C   C38       1.0  0.6458613844980831  0.08500834195137941  0.5165308743561068  1.0000
  N   N1        1.0  0.07057169282578002  0.3660925336601296  0.3341702799205278  1.0000
  N   N2        1.0  0.9294230375476004  0.6339168055563675  0.665828804692154  1.0000
  N   N3        1.0  0.5917425978838793  0.15502218448786928  0.2093676797291194  1.0000
  N   N4        1.0  0.40825612227395425  0.8449801722685566  0.7906325007036868  1.0000
  O   O1        1.0  0.5991012597895562  0.9429696753105432  0.1490937446744453  1.0000
  O   O2        1.0  0.40090615719680045  0.0570316395027461  0.8509299003200252  1.0000
  O   O3        1.0  0.3664340995021362  0.511891736747863  0.2566317227284997  1.0000
  O   O4        1.0  0.6335673419735243  0.4881036452835801  0.743366563430662  1.0000
  O   O5        1.0  0.368969787654045  0.29856155661482126  0.21731754193971392  1.0000
  O   O6        1.0  0.6310293282274416  0.7014388030216381  0.7826757779596959  1.0000
  O   O7        1.0  0.34399462362382843  0.6413915298479368  0.4786911373168719  1.0000
  O   O8        1.0  0.6560029784134257  0.35860686517325757  0.5213077705200602  1.0000
  O   O9        1.0  0.6031979852825344  0.6767524643731379  0.49977990731085226  1.0000
  O   O10       1.0  0.39680315647436254  0.323246883072791  0.5002122735745971  1.0000
