data_image0
_chemical_formula_structural       Ca2H24C32N4O12
_chemical_formula_sum              "Ca2 H24 C32 N4 O12"
_cell_length_a       7.043515156751219
_cell_length_b       7.405988239048991
_cell_length_c       16.341156068070518
_cell_angle_alpha    89.9997418881069
_cell_angle_beta     89.99991517264071
_cell_angle_gamma    114.65617603215821

_space_group_name_H-M_alt    "P 1"
_space_group_IT_number       1

loop_
  _space_group_symop_operation_xyz
  'x, y, z'

loop_
  _atom_site_type_symbol
  _atom_site_label
  _atom_site_symmetry_multiplicity
  _atom_site_fract_x
  _atom_site_fract_y
  _atom_site_fract_z
  _atom_site_occupancy
  Ca  Ca1       1.0  0.7500003991125795  0.750001951005963  0.5312111156544361  1.0000
  Ca  Ca2       1.0  0.24999707171746624  0.2499991577261227  0.46878779874270987  1.0000
  H   H1        1.0  0.6126034240108496  0.0536595721072288  0.5970181047782004  1.0000
  H   H2        1.0  0.887393266650399  0.4463410926878239  0.5970182322355981  1.0000
  H   H3        1.0  0.38738914178295414  0.9463400978205101  0.4029808096219155  1.0000
  H   H4        1.0  0.11259721974776941  0.5536571072164662  0.4029806821666567  1.0000
  H   H5        1.0  0.8567089235876325  0.1303959635190139  0.6050106540543252  1.0000
  H   H6        1.0  0.6432876903735762  0.3696045912120596  0.6050104761353835  1.0000
  H   H7        1.0  0.1432857216047339  0.8696051764363941  0.3949876483918472  1.0000
  H   H8        1.0  0.35670287568837017  0.6303906218082531  0.39498966217350057  1.0000
  H   H9        1.0  0.053263328485733986  0.23782782847090536  0.2855236040056822  1.0000
  H   H10       1.0  0.44672692238943074  0.2621730731718088  0.2855228461477138  1.0000
  H   H11       1.0  0.9467300632138914  0.7621673533260847  0.7144771462541752  1.0000
  H   H12       1.0  0.5532725481724655  0.7378324924677102  0.714474844340664  1.0000
  H   H13       1.0  0.06412730571617692  0.2537242421093069  0.13298235730189834  1.0000
  H   H14       1.0  0.4358693937605765  0.2462772121416705  0.13297857874859176  1.0000
  H   H15       1.0  0.9358696578572889  0.7462694072091693  0.8670208407656543  1.0000
  H   H16       1.0  0.5641385537378342  0.7537282598616033  0.8670160519782255  1.0000
  H   H17       1.0  0.45074972985074885  0.7674616848360784  0.12341078882299425  1.0000
  H   H18       1.0  0.04924720463819198  0.7325348040370087  0.12340788822104536  1.0000
  H   H19       1.0  0.5492458209082828  0.23253198010037576  0.876591185341361  1.0000
  H   H20       1.0  0.9507614890817068  0.267469166690006  0.8765916381215388  1.0000
  H   H21       1.0  0.44107131059978133  0.7524449924219424  0.27490498472251085  1.0000
  H   H22       1.0  0.058923264463203416  0.7475568851927719  0.2749038834266599  1.0000
  H   H23       1.0  0.5589226680025804  0.24755466187939124  0.7250963774844192  1.0000
  H   H24       1.0  0.9410831108432943  0.2524545761248191  0.7250974787644322  1.0000
  C   C1        1.0  0.7481251246869293  0.9723609242120049  0.38098957191234456  1.0000
  C   C2        1.0  0.7518660516230113  0.5276362107899003  0.38098574001037366  1.0000
  C   C3        1.0  0.2518661876053159  0.0276327875446825  0.6190136261568852  1.0000
  C   C4        1.0  0.2481321654578821  0.4723633967080616  0.6190119504844559  1.0000
  C   C5        1.0  0.7475224481829914  0.9935165257837539  0.2900473923715552  1.0000
  C   C6        1.0  0.75246810836601  0.5064848640629265  0.2900454390400071  1.0000
  C   C7        1.0  0.2524694510208009  0.006481658489917698  0.7099545817893186  1.0000
  C   C8        1.0  0.24753485440889023  0.4935221559862768  0.7099528633976175  1.0000
  C   C9        1.0  0.922660481073372  0.1345638088512828  0.24973649983053994  1.0000
  C   C10       1.0  0.5773326375671602  0.3654357426997805  0.24973453514875388  1.0000
  C   C11       1.0  0.07732667243935512  0.8654269628753539  0.7502642504357337  1.0000
  C   C12       1.0  0.42267315085422313  0.6345712461387479  0.7502625433844157  1.0000
  C   C13       1.0  0.9295019260869497  0.14401413565191487  0.16478350226365984  1.0000
  C   C14       1.0  0.5704963259431964  0.3559835520856254  0.16478217299437145  1.0000
  C   C15       1.0  0.07049221185765474  0.8559795449025173  0.835217247997498  1.0000
  C   C16       1.0  0.42951585999557557  0.6440218730595006  0.8352167413938429  1.0000
  C   C17       1.0  0.7585579143826922  0.010294147031942195  0.11962348349187117  1.0000
  C   C18       1.0  0.7414429300983301  0.48970264575860517  0.11962177662194758  1.0000
  C   C19       1.0  0.24143689013723696  0.9897010191554968  0.880377266767567  1.0000
  C   C20       1.0  0.2585721611507097  0.5102997612918613  0.8803771377684482  1.0000
  C   C21       1.0  0.5809012003049503  0.8706109283931125  0.15937811122555695  1.0000
  C   C22       1.0  0.9191019127835178  0.6293921360248901  0.15937764083127348  1.0000
  C   C23       1.0  0.41909493736269354  0.12938720905611936  0.8406232509822542  1.0000
  C   C24       1.0  0.08091235253914414  0.3706147591268304  0.8406237213620427  1.0000
  C   C25       1.0  0.5765602092386716  0.8635247582712112  0.24423013356677353  1.0000
  C   C26       1.0  0.9234343588858208  0.6364757300655698  0.24422842216845447  1.0000
  C   C27       1.0  0.42343168996805514  0.136473426006674  0.7557712286422954  1.0000
  C   C28       1.0  0.07657076294260898  0.36352977311467793  0.7557723280772846  1.0000
  C   C29       1.0  0.7619947265453038  0.012782932365340102  0.03244054167446819  1.0000
  C   C30       1.0  0.7380236694324227  0.48722383434102307  0.032438841973970484  1.0000
  C   C31       1.0  0.2380078086602849  0.9872136414199841  0.9675583727257331  1.0000
  C   C32       1.0  0.262003231612141  0.5127859072129295  0.9675606843571243  1.0000
  N   N1        1.0  0.7598808049973371  0.010236368296212103  0.9609843968259637  1.0000
  N   N2        1.0  0.7401370773450753  0.4897605045708673  0.9609826906474266  1.0000
  N   N3        1.0  0.24012871462251445  0.9897631142916268  0.039018189279971686  1.0000
  N   N4        1.0  0.25988174512298207  0.5102343962584043  0.0390174476530802  1.0000
  O   O1        1.0  0.5809371522907583  0.8494902918349395  0.41698291799636417  1.0000
  O   O2        1.0  0.9190515195321254  0.6505078643413782  0.41698056875929257  1.0000
  O   O3        1.0  0.419051921272427  0.15050792365783386  0.5830190561653481  1.0000
  O   O4        1.0  0.0809445384717407  0.3494932599918315  0.5830195695418892  1.0000
  O   O5        1.0  0.9133354707451249  0.0665267235075078  0.4215940579795258  1.0000
  O   O6        1.0  0.5866505863712276  0.4334615631908249  0.4215919489913631  1.0000
  O   O7        1.0  0.0866525086734241  0.9334595600883799  0.5784085281464825  1.0000
  O   O8        1.0  0.4133434719213369  0.566535104264446  0.5784051295559249  1.0000
  O   O9        1.0  0.7240897088267959  0.009642894997036001  0.6094627672551596  1.0000
  O   O10       1.0  0.7759040367701147  0.4903576296449542  0.6094622617413135  1.0000
  O   O11       1.0  0.27590144414376283  0.9903567905360403  0.39053675909718766  1.0000
  O   O12       1.0  0.22408437023536015  0.5096391002401006  0.39053604071127507  1.0000
