data_image0
_chemical_formula_structural       Li2H10C4N12O6
_chemical_formula_sum              "Li2 H10 C4 N12 O6"
_cell_length_a       3.523290695485659
_cell_length_b       7.284099130378555
_cell_length_c       12.312332505083594
_cell_angle_alpha    89.99959194641664
_cell_angle_beta     89.99988402610354
_cell_angle_gamma    92.22050446798728

_space_group_name_H-M_alt    "P 1"
_space_group_IT_number       1

loop_
  _space_group_symop_operation_xyz
  'x, y, z'

loop_
  _atom_site_type_symbol
  _atom_site_label
  _atom_site_symmetry_multiplicity
  _atom_site_fract_x
  _atom_site_fract_y
  _atom_site_fract_z
  _atom_site_occupancy
  Li  Li1       1.0  0.5030817909163758  0.5070502008092461  0.45263518163849886  1.0000
  Li  Li2       1.0  0.4969202771407168  0.49295502912951145  0.9526355180301564  1.0000
  H   H1        1.0  0.9865627545283644  0.7666635140116183  0.46906598219887025  1.0000
  H   H2        1.0  0.013435911548654596  0.23333602251817345  0.9690644538355854  1.0000
  H   H3        1.0  0.15826754851360647  0.8444908051031984  0.6965087315429911  1.0000
  H   H4        1.0  0.8417304503355041  0.15551061048985557  0.19650241070030464  1.0000
  H   H5        1.0  0.7701982471830108  0.915434848315769  0.7769789462215115  1.0000
  H   H6        1.0  0.22980518223464944  0.08457110525483807  0.27697814180879016  1.0000
  H   H7        1.0  0.19459005858414713  0.056190227957436896  0.7708838147561891  1.0000
  H   H8        1.0  0.8054048000244335  0.9438144194483582  0.2708846810739516  1.0000
  H   H9        1.0  0.077437031694167  0.6808489484555835  0.3525840211502853  1.0000
  H   H10       1.0  0.9225655527600196  0.3191533545476375  0.8525832457265918  1.0000
  C   C1        1.0  0.7288761787165684  0.23124166055795564  0.6225166022395996  1.0000
  C   C2        1.0  0.2711213726749477  0.7687468996320915  0.122527450996138  1.0000
  C   C3        1.0  0.004738404808556105  0.963307841463326  0.7244959041720165  1.0000
  C   C4        1.0  0.9952620919403402  0.036691867689341996  0.22449731943212467  1.0000
  N   N1        1.0  0.8652834679349013  0.05909627069036819  0.6299460714577378  1.0000
  N   N2        1.0  0.1347124618779745  0.9409086857456898  0.1299505695794565  1.0000
  N   N3        1.0  0.8483158417044194  0.9821651860524413  0.5300475031504064  1.0000
  N   N4        1.0  0.1516831219140826  0.017832721676541003  0.030047841193031395  1.0000
  N   N5        1.0  0.7077500292172233  0.10132844952360638  0.46443067606694644  1.0000
  N   N6        1.0  0.29224867557829975  0.8986711423306843  0.9644334410181726  1.0000
  N   N7        1.0  0.6300772869387359  0.25766542739194875  0.5179181954555503  1.0000
  N   N8        1.0  0.3699248295621658  0.7423353746056661  0.017921793538604895  1.0000
  N   N9        1.0  0.710394756576548  0.3345552024587519  0.7143698173909028  1.0000
  N   N10       1.0  0.28960866317209616  0.665444629278376  0.21437379064186493  1.0000
  N   N11       1.0  0.5657654732739985  0.5011812011573937  0.7062670536647886  1.0000
  N   N12       1.0  0.43423255056354276  0.4988214717448969  0.206269227285496  1.0000
  O   O1        1.0  0.465869307234449  0.571308206521415  0.6176273489521549  1.0000
  O   O2        1.0  0.5341383987667427  0.4287010253603327  0.11763870319945369  1.0000
  O   O3        1.0  0.5295952629984909  0.5879462176607362  0.7939773087772792  1.0000
  O   O4        1.0  0.47039507217731114  0.4120389178677898  0.29398795767298214  1.0000
  O   O5        1.0  0.011622805681824395  0.6494863271948929  0.42893032304649387  1.0000
  O   O6        1.0  0.9883680003649999  0.35051780520937115  0.9289261275596417  1.0000
