data_image0
_chemical_formula_structural       CdH30C26N4O8
_chemical_formula_sum              "Cd1 H30 C26 N4 O8"
_cell_length_a       7.435504229975297
_cell_length_b       9.039287823636805
_cell_length_c       10.941144543708042
_cell_angle_alpha    99.77407548852611
_cell_angle_beta     102.07729568575515
_cell_angle_gamma    113.0787405043223

_space_group_name_H-M_alt    "P 1"
_space_group_IT_number       1

loop_
  _space_group_symop_operation_xyz
  'x, y, z'

loop_
  _atom_site_type_symbol
  _atom_site_label
  _atom_site_symmetry_multiplicity
  _atom_site_fract_x
  _atom_site_fract_y
  _atom_site_fract_z
  _atom_site_occupancy
  Cd  Cd1       1.0  0.9999984362838743  0.9999993394709746  0.9999990588901893  1.0000
  H   H1        1.0  0.13829661145994268  0.0220521435790815  0.7986050986042912  1.0000
  H   H2        1.0  0.8617011950511824  0.9779459537528367  0.2013918650174205  1.0000
  H   H3        1.0  0.1932482777769876  0.8742416094655496  0.8252573455137834  1.0000
  H   H4        1.0  0.8067542505912612  0.12576020754141132  0.17474360254429652  1.0000
  H   H5        1.0  0.8714578601609447  0.6821133541405545  0.2972178348084071  1.0000
  H   H6        1.0  0.1285405445575378  0.31788598013875463  0.7027821326389798  1.0000
  H   H7        1.0  0.46758014448147367  0.22896108682473937  0.16596785666063593  1.0000
  H   H8        1.0  0.5324169228810547  0.7710382638048046  0.8340309900782968  1.0000
  H   H9        1.0  0.026933827804434436  0.3591472098245561  0.9860730009338068  1.0000
  H   H10       1.0  0.9730639008962355  0.6408533881357175  0.013927032516406396  1.0000
  H   H11       1.0  0.27789582830909154  0.6694914554031826  0.06638762739424917  1.0000
  H   H12       1.0  0.7221025132786068  0.3305078684927878  0.9336141571675326  1.0000
  H   H13       1.0  0.6327092104450855  0.7524148742962921  0.19979460639265056  1.0000
  H   H14       1.0  0.36728913114261263  0.24758444959968534  0.8002071781691312  1.0000
  H   H15       1.0  0.12393433448535521  0.6390413077814117  0.4604821118954375  1.0000
  H   H16       1.0  0.8760661320580068  0.36095926786172333  0.5395183458572959  1.0000
  H   H17       1.0  0.19111478664100193  0.638735435069222  0.317226543175046  1.0000
  H   H18       1.0  0.8088829104942692  0.3612651576993784  0.6827743988323646  1.0000
  H   H19       1.0  0.20936054926691833  0.3664485855570375  0.31028325813120006  1.0000
  H   H20       1.0  0.7906351176088648  0.6335507710394097  0.6897162850136664  1.0000
  H   H21       1.0  0.13625981720454658  0.3586211373614461  0.4520931819377194  1.0000
  H   H22       1.0  0.8637385875139358  0.6413781969178629  0.5479067855096671  1.0000
  H   H23       1.0  0.5228405922453517  0.6407067405181124  0.433870288503087  1.0000
  H   H24       1.0  0.47715852005633497  0.3592913352719052  0.5661287043842761  1.0000
  H   H25       1.0  0.45034115795801444  0.6311787034944842  0.5756995722006905  1.0000
  H   H26       1.0  0.549658647247213  0.3688206248179284  0.42429969884076246  1.0000
  H   H27       1.0  0.1690550846595117  0.9762710229237044  0.5320547408716576  1.0000
  H   H28       1.0  0.8309433663040408  0.023725805535583795  0.4679430653044179  1.0000
  H   H29       1.0  0.4572642920590794  0.015574424161165697  0.7206512861463422  1.0000
  H   H30       1.0  0.5427355762769323  0.9844249145345784  0.27934616778071586  1.0000
  C   C1        1.0  0.5815781901180868  0.498561296538547  0.19373239715779525  1.0000
  C   C2        1.0  0.4184229524430946  0.5014380154236235  0.8062679945921116  1.0000
  C   C3        1.0  0.43267049478005487  0.3301853115105827  0.14674649360610909  1.0000
  C   C4        1.0  0.5673294051213417  0.6698140323768271  0.8532500517637513  1.0000
  C   C5        1.0  0.184543935013771  0.40470872163395905  0.0467815372111744  1.0000
  C   C6        1.0  0.8154544697047112  0.5952906126453499  0.9532184302362197  1.0000
  C   C7        1.0  0.32233856993173043  0.574105771013123  0.09078921190186408  1.0000
  C   C8        1.0  0.6776597716559676  0.42589355288284736  0.9092125726599177  1.0000
  C   C9        1.0  0.5215118611935096  0.6212720828050493  0.16555562790715328  1.0000
  C   C10       1.0  0.4784864950738593  0.3787247300792345  0.8344449039405146  1.0000
  C   C11       1.0  0.8860786128954314  0.4574508319899238  0.2909883763300555  1.0000
  C   C12       1.0  0.11392172738636919  0.5425497228865409  0.7090157156514605  1.0000
  C   C13       1.0  0.110841297830035  0.554367505904942  0.37031579283477356  1.0000
  C   C14       1.0  0.889159137147942  0.44563306454652  0.6296855734751572  1.0000
  C   C15       1.0  0.2182739846128569  0.44584394831239377  0.4014887477551666  1.0000
  C   C16       1.0  0.7817244201056253  0.5541553859669148  0.59851121969222  1.0000
  C   C17       1.0  0.442900332713549  0.55202887067518  0.4844007243625014  1.0000
  C   C18       1.0  0.5570994724916714  0.4479704576372328  0.5155985466789516  1.0000
  C   C19       1.0  0.16448385697427156  0.9465442092885608  0.28025702619643045  1.0000
  C   C20       1.0  0.8355187029593764  0.053457612910065705  0.7197430133044518  1.0000
  C   C21       1.0  0.3389813061237489  0.9763243269557691  0.39430126179200187  1.0000
  C   C22       1.0  0.6610247014418462  0.0236812416514667  0.6056998243223929  1.0000
  C   C23       1.0  0.3142129397822372  0.9863045785323407  0.5186775020541247  1.0000
  C   C24       1.0  0.685791730427404  0.0137010064251371  0.48132246335181605  1.0000
  C   C25       1.0  0.4743199279741575  0.0092085563117408  0.6236868082983162  1.0000
  C   C26       1.0  0.5256833879938012  0.9907945287926123  0.3763116922422609  1.0000
  N   N1        1.0  0.23969850209773108  0.287092030726633  0.07572961666107857  1.0000
  N   N2        1.0  0.7603006270896768  0.7129085612667367  0.9242697203832007  1.0000
  N   N3        1.0  0.7858791072232518  0.5534067594137966  0.2672496461091995  1.0000
  N   N4        1.0  0.21412127930360472  0.44659128964265454  0.7327522846010125  1.0000
  O   O1        1.0  0.7965676241618382  0.302123392184626  0.2502183700053138  1.0000
  O   O2        1.0  0.20343205478182103  0.6978759153611094  0.7497845352649221  1.0000
  O   O3        1.0  0.20125166351794385  0.9577874696302544  0.17281590516294187  1.0000
  O   O4        1.0  0.7987453869588633  0.04220936479593719  0.8271825974190745  1.0000
  O   O5        1.0  0.9891163843987485  0.9095653625744546  0.29869877488306423  1.0000
  O   O6        1.0  0.010883403920757893  0.09043144953459858  0.7013001520014653  1.0000
  O   O7        1.0  0.20722776007918495  0.9853004348989599  0.8685483736226371  1.0000
  O   O8        1.0  0.7927727695949613  0.014700151127506405  0.13145026701570117  1.0000
