data_image0
_chemical_formula_structural       Cd2Fe2H60C62N8O10
_chemical_formula_sum              "Cd2 Fe2 H60 C62 N8 O10"
_cell_length_a       11.737373872041054
_cell_length_b       12.044690487839043
_cell_length_c       13.611416106671742
_cell_angle_alpha    68.55993650217637
_cell_angle_beta     77.14331279203248
_cell_angle_gamma    62.287568234747944

_space_group_name_H-M_alt    "P 1"
_space_group_IT_number       1

loop_
  _space_group_symop_operation_xyz
  'x, y, z'

loop_
  _atom_site_type_symbol
  _atom_site_label
  _atom_site_symmetry_multiplicity
  _atom_site_fract_x
  _atom_site_fract_y
  _atom_site_fract_z
  _atom_site_occupancy
  Cd  Cd1       1.0  0.8751155535340654  0.6450773656581532  0.6236448363359487  1.0000
  Cd  Cd2       1.0  0.12488350711826257  0.3549240973415166  0.37635343558562084  1.0000
  Fe  Fe1       1.0  0.11067278236802018  0.8708202101798225  0.2547423620867661  1.0000
  Fe  Fe2       1.0  0.8893242331619433  0.12918418324631634  0.7452597766015641  1.0000
  H   H1        1.0  0.2970152663730799  0.6435329621737724  0.3788946562048849  1.0000
  H   H2        1.0  0.7029821057560497  0.3564684727295315  0.6211098360382578  1.0000
  H   H3        1.0  0.37039284767471486  0.8275887474692001  0.2338899643548658  1.0000
  H   H4        1.0  0.6296053993983576  0.17241268482866454  0.7661143558422766  1.0000
  H   H5        1.0  0.18146500092947795  0.0686723569979364  0.23723165931919968  1.0000
  H   H6        1.0  0.8185350678447348  0.9313310318545266  0.7627724043010246  1.0000
  H   H7        1.0  0.996238816934557  0.0327353215259762  0.3858042627581141  1.0000
  H   H8        1.0  0.0037621421247777025  0.9672680563942466  0.6142010978735043  1.0000
  H   H9        1.0  0.7653999175552495  0.22735705138716614  0.9156095790696597  1.0000
  H   H10       1.0  0.23459979461979674  0.7726492959881385  0.08439213099575216  1.0000
  H   H11       1.0  0.9052465316096981  0.9624049485740617  0.9548680149970677  1.0000
  H   H12       1.0  0.09475054806292597  0.03760141078095101  0.045133476677641206  1.0000
  H   H13       1.0  0.12178857562141587  0.9211424561780533  0.8257092596838831  1.0000
  H   H14       1.0  0.8782066105368286  0.07885998485689073  0.1742924010526679  1.0000
  H   H15       1.0  0.11814614924182366  0.16000363167696463  0.7077662459955719  1.0000
  H   H16       1.0  0.881849817035366  0.8399968574772888  0.292232951593803  1.0000
  H   H17       1.0  0.6902177279350211  0.9409163633650693  0.6605212670887467  1.0000
  H   H18       1.0  0.30977959817058576  0.0590850965186576  0.3394788179822115  1.0000
  H   H19       1.0  0.6157032272363875  0.5996504327981853  0.5933659227292837  1.0000
  H   H20       1.0  0.3843018374088557  0.4003470759422855  0.40663317342621497  1.0000
  H   H21       1.0  0.3935850336071736  0.6530418864737231  0.5529295091779928  1.0000
  H   H22       1.0  0.6064215961685872  0.34694971510585765  0.4470719184550446  1.0000
  H   H23       1.0  0.21299594756555257  0.8685197119049589  0.5517221496033216  1.0000
  H   H24       1.0  0.7870080113548421  0.13147192247134853  0.4482753869955332  1.0000
  H   H25       1.0  0.23987223041992678  0.035590573675143795  0.5953368869039438  1.0000
  H   H26       1.0  0.7601296143428229  0.964404028598274  0.4046579057034094  1.0000
  H   H27       1.0  0.3453562457148322  0.16990377652003735  0.6138002032780179  1.0000
  H   H28       1.0  0.6546423865250898  0.8300986832369972  0.38619562757366327  1.0000
  H   H29       1.0  0.4931728269188154  0.1554582389327877  0.6392642111861662  1.0000
  H   H30       1.0  0.5068261695908587  0.8445412581380083  0.36073470774901745  1.0000
  H   H31       1.0  0.31845352625379764  0.04030407763745811  0.80422231476863  1.0000
  H   H32       1.0  0.6815428788843361  0.9596974098321313  0.19577353517615853  1.0000
  H   H33       1.0  0.46842482125732937  0.022995571138217506  0.8289243284048738  1.0000
  H   H34       1.0  0.5315706524647935  0.9770039488445266  0.17107307512821984  1.0000
  H   H35       1.0  0.23508081647958787  0.28852737253605204  0.7543619778779416  1.0000
  H   H36       1.0  0.7649142825242375  0.7114731150602297  0.24563812628613138  1.0000
  H   H37       1.0  0.3831767351068293  0.2673260954354078  0.7856674918923829  1.0000
  H   H38       1.0  0.6168209503759029  0.7326744051615892  0.21432842349021536  1.0000
  H   H39       1.0  0.1924108644196919  0.16592858835311122  0.9381761321672002  1.0000
  H   H40       1.0  0.8075895072595782  0.8340718711203509  0.06182514330696883  1.0000
  H   H41       1.0  0.343626673662996  0.1319215783550476  0.9745583831029876  1.0000
  H   H42       1.0  0.6563741368772325  0.8680798794337508  0.025439544726587767  1.0000
  H   H43       1.0  0.27933786038139624  0.3712637438782523  0.9376359952395886  1.0000
  H   H44       1.0  0.720662057095751  0.6287357256066813  0.06236715882177884  1.0000
  H   H45       1.0  0.13539619372304654  0.41121532620112333  0.8860291840355642  1.0000
  H   H46       1.0  0.8646042420988775  0.5887870992012127  0.11397144442498328  1.0000
  H   H47       1.0  0.27053391393855003  0.34106357303262064  0.1321143400821256  1.0000
  H   H48       1.0  0.7294633633655746  0.6589359125954248  0.8678878610598418  1.0000
  H   H49       1.0  0.9491312691641127  0.3396572512948667  0.93937383919868  1.0000
  H   H50       1.0  0.05086721667137069  0.6603392856951161  0.060628339866020994  1.0000
  H   H51       1.0  0.7395431183971154  0.35007269397342367  0.03355610664689831  1.0000
  H   H52       1.0  0.2604558446522559  0.6499248205148761  0.9664463974166894  1.0000
  H   H53       1.0  0.6930188162284735  0.3452939382377451  0.22187056799616303  1.0000
  H   H54       1.0  0.30697763493319014  0.6547075242514141  0.7781296891208028  1.0000
  H   H55       1.0  0.8531589741172778  0.3395487156913292  0.320139455943334  1.0000
  H   H56       1.0  0.14683957586085936  0.6604497872275275  0.6798620761077531  1.0000
  H   H57       1.0  0.8431241708083658  0.5331010381818048  0.4811634587420243  1.0000
  H   H58       1.0  0.15688236660943738  0.4669013814726953  0.5188337618104342  1.0000
  H   H59       1.0  0.9054089176111759  0.6251452479460087  0.410552464627635  1.0000
  H   H60       1.0  0.09460188158222839  0.37485321849676734  0.589446658779451  1.0000
  C   C1        1.0  0.04600450729586915  0.7504699099696525  0.49126466131601637  1.0000
  C   C2        1.0  0.9539957256495483  0.2495246225733609  0.5087436968998632  1.0000
  C   C3        1.0  0.12300490900253158  0.8161133793472005  0.41302521134195314  1.0000
  C   C4        1.0  0.8769915881826477  0.18388805816153567  0.5869794529471831  1.0000
  C   C5        1.0  0.24607411491597717  0.749455888394728  0.3631766871599708  1.0000
  C   C6        1.0  0.7539224234000983  0.2505475275330937  0.636825126529473  1.0000
  C   C7        1.0  0.28390539579169866  0.8468036023478408  0.28682147057276797  1.0000
  C   C8        1.0  0.7160936878723944  0.15319784816161797  0.7131790049348936  1.0000
  C   C9        1.0  0.184534366754505  0.9741916950686405  0.288861302336457  1.0000
  C   C10       1.0  0.8154634519061615  0.025810733986595814  0.7111405767907897  1.0000
  C   C11       1.0  0.08515844888032109  0.9557897107719386  0.36643609845977204  1.0000
  C   C12       1.0  0.9148403165375425  0.044214677443328305  0.6335656961365573  1.0000
  C   C13       1.0  0.9301474846884332  0.2423875268517293  0.7989215287703857  1.0000
  C   C14       1.0  0.06985772358328987  0.7576139054196817  0.20107774241527215  1.0000
  C   C15       1.0  0.859291537960807  0.1774301789595398  0.8794658245694295  1.0000
  C   C16       1.0  0.1407089285434678  0.8225722297891807  0.12053774200590796  1.0000
  C   C17       1.0  0.932808272737681  0.0385760940296507  0.8994722681385241  1.0000
  C   C18       1.0  0.06718836040339929  0.9614292711734295  0.10053183665208813  1.0000
  C   C19       1.0  0.048760173671986685  0.01635423049985721  0.8316605986685204  1.0000
  C   C20       1.0  0.9512385276032231  0.9836481917865431  0.16834184294142313  1.0000
  C   C21       1.0  0.04718957019001378  0.14163014564728374  0.7697603248602859  1.0000
  C   C22       1.0  0.952812907976316  0.8583673500924721  0.2302429600766941  1.0000
  C   C23       1.0  0.8881807304904256  0.3865023596265829  0.7498820759336766  1.0000
  C   C24       1.0  0.11182485249959463  0.6134981050312903  0.250114494621009  1.0000
  C   C25       1.0  0.6258347879207803  0.9057874390073836  0.6486952983084605  1.0000
  C   C26       1.0  0.3741634619302585  0.09421599252659259  0.35130249864549506  1.0000
  C   C27       1.0  0.5511973991523647  0.7884772940703684  0.617343418909563  1.0000
  C   C28       1.0  0.4488050741213455  0.21152220506890276  0.3826526082555405  1.0000
  C   C29       1.0  0.5341354410551984  0.6928724534924271  0.5948693508757259  1.0000
  C   C30       1.0  0.4658700059789281  0.3071240834711021  0.40512777917749077  1.0000
  C   C31       1.0  0.4107134017692715  0.7236965064010621  0.572793765787857  1.0000
  C   C32       1.0  0.5892932614667925  0.2762970777610009  0.4272040767167837  1.0000
  C   C33       1.0  0.30684588377781075  0.8459552865165424  0.5735956430764233  1.0000
  C   C34       1.0  0.6931577338845968  0.15403929805579253  0.4264010090250139  1.0000
  C   C35       1.0  0.32118807742339317  0.9406128287253851  0.5989817089609704  1.0000
  C   C36       1.0  0.6788147217671322  0.059383728544659724  0.40101373364416293  1.0000
  C   C37       1.0  0.44505183814472105  0.9094115257730521  0.6211637376334522  1.0000
  C   C38       1.0  0.5549497525144529  0.09058798013505512  0.37883172704894724  1.0000
  C   C39       1.0  0.4274987479221719  0.1070381102308176  0.6641038553610981  1.0000
  C   C40       1.0  0.5724998278456822  0.8929623794339393  0.3358933570328873  1.0000
  C   C41       1.0  0.3836826572492952  0.08943197313424632  0.7812281154045876  1.0000
  C   C42       1.0  0.6163128241434137  0.9105675426850938  0.21877002265720344  1.0000
  C   C43       1.0  0.31608405622524316  0.22043969409957503  0.8056073772518103  1.0000
  C   C44       1.0  0.6839119253931185  0.7795607867278634  0.19439328939495948  1.0000
  C   C45       1.0  0.26560622870815104  0.2045026731224553  0.9212942882715751  1.0000
  C   C46       1.0  0.7343919646708197  0.7954987883192434  0.07870489022469242  1.0000
  C   C47       1.0  0.20600011831505324  0.3359978109165098  0.944455680283511  1.0000
  C   C48       1.0  0.7939993784202668  0.6640026511623845  0.05554576723665151  1.0000
  C   C49       1.0  0.1807072430742734  0.3344254498752691  0.1344941615740609  1.0000
  C   C50       1.0  0.8192874812112548  0.6655760053345504  0.8655086432209985  1.0000
  C   C51       1.0  0.01905371185522136  0.3314755595010865  0.0786702325195634  1.0000
  C   C52       1.0  0.9809439631789655  0.6685229460232096  0.921331471577517  1.0000
  C   C53       1.0  0.9299115042323363  0.3374945953885487  0.02183584797212755  1.0000
  C   C54       1.0  0.0700848827866664  0.6625049011717438  0.9781650561584455  1.0000
  C   C55       1.0  0.812434152959966  0.3433106250148015  0.07572262758638006  1.0000
  C   C56       1.0  0.1875631654750547  0.6566908390323293  0.924276722955888  1.0000
  C   C57       1.0  0.7857339371362924  0.34180081248312183  0.18243213487652105  1.0000
  C   C58       1.0  0.21426211629530892  0.6582016301097868  0.817568619285332  1.0000
  C   C59       1.0  0.8747854703999777  0.33638522223116507  0.23882709213280864  1.0000
  C   C60       1.0  0.12521266650692547  0.6636142691182556  0.7611734679057705  1.0000
  C   C61       1.0  0.9927292140298786  0.33219544682447844  0.18542399907858012  1.0000
  C   C62       1.0  0.007269328277672515  0.6678030602577892  0.8145767984438094  1.0000
  N   N1        1.0  0.6624904411308419  0.7903593944388092  0.6345759876355643  1.0000
  N   N2        1.0  0.3375099563381525  0.2096430517805459  0.36542096818151043  1.0000
  N   N3        1.0  0.4966286427251132  0.9809677637919383  0.642389496706393  1.0000
  N   N4        1.0  0.5033716111173943  0.019030758896477103  0.3576072840805153  1.0000
  N   N5        1.0  0.14026211741118289  0.3314543523127328  0.04921708171956847  1.0000
  N   N6        1.0  0.8597360041545412  0.6685451473634956  0.9507820092616156  1.0000
  N   N7        1.0  0.09635426527395201  0.3338644278141061  0.217489717073839  1.0000
  N   N8        1.0  0.9036430197007658  0.6661350536505354  0.7825132185968258  1.0000
  O   O1        1.0  0.9294885659137718  0.8212337319415469  0.5160125767071193  1.0000
  O   O2        1.0  0.07051982631309528  0.17875585686424242  0.4839964991344985  1.0000
  O   O3        1.0  0.0995318673777134  0.625416383971242  0.5319060598425693  1.0000
  O   O4        1.0  0.9004738669093794  0.3745880000541676  0.468091420270973  1.0000
  O   O5        1.0  0.9722279814656715  0.421747795284425  0.6825889208551957  1.0000
  O   O6        1.0  0.027779328400484405  0.5782526766527952  0.31740510202139655  1.0000
  O   O7        1.0  0.7796036805260937  0.46659596185996577  0.7748194339706201  1.0000
  O   O8        1.0  0.22039740223684118  0.5334025832034471  0.225172767598103  1.0000
  O   O9        1.0  0.8353559462158484  0.6230724908610483  0.46721996998007853  1.0000
  O   O10       1.0  0.1646512172458613  0.37692205830912695  0.532780401109541  1.0000
