data_image0
_chemical_formula_structural       Zn2H18C36N2O14
_chemical_formula_sum              "Zn2 H18 C36 N2 O14"
_cell_length_a       10.8394941097792
_cell_length_b       11.49934996328479
_cell_length_c       13.222465776856437
_cell_angle_alpha    70.94722211308135
_cell_angle_beta     90.92447928795586
_cell_angle_gamma    72.07414646679416

_space_group_name_H-M_alt    "P 1"
_space_group_IT_number       1

loop_
  _space_group_symop_operation_xyz
  'x, y, z'

loop_
  _atom_site_type_symbol
  _atom_site_label
  _atom_site_symmetry_multiplicity
  _atom_site_fract_x
  _atom_site_fract_y
  _atom_site_fract_z
  _atom_site_occupancy
  Zn  Zn1       1.0  0.4484289249331538  0.6398804792859849  0.46784429176457837  1.0000
  Zn  Zn2       1.0  0.5515438886497961  0.3601244383669524  0.5321542172916054  1.0000
  H   H1        1.0  0.9718234049884061  0.3240611574538689  0.652184332430281  1.0000
  H   H2        1.0  0.028149568166199433  0.67592377862875  0.347804505073988  1.0000
  H   H3        1.0  0.8825793311215548  0.7108804531406462  0.517976496759765  1.0000
  H   H4        1.0  0.1173877300026192  0.28910455999365336  0.4820054638739394  1.0000
  H   H5        1.0  0.5029446037937433  0.3386940893723891  0.21040812113729862  1.0000
  H   H6        1.0  0.4970330149354254  0.6613616745864802  0.7895718894138712  1.0000
  H   H7        1.0  0.49472026938241237  0.7350818564163435  0.12702550180893718  1.0000
  H   H8        1.0  0.5052743269624358  0.26496255820107717  0.8729670503334576  1.0000
  H   H9        1.0  0.5049498020705343  0.24162803971471902  0.06666064868660021  1.0000
  H   H10       1.0  0.4949866433257242  0.7584440814640204  0.9333283060714807  1.0000
  H   H11       1.0  0.6420479092534846  0.05059638646540777  0.327405076977847  1.0000
  H   H12       1.0  0.35799112430294144  0.9493770578170315  0.6726129382188263  1.0000
  H   H13       1.0  0.024703847896773826  0.5339398754931822  0.7473294996652556  1.0000
  H   H14       1.0  0.9752398484649945  0.4660855622061675  0.2526381414843257  1.0000
  H   H15       1.0  0.4954583756872566  0.8007704397927644  0.29693723381556947  1.0000
  H   H16       1.0  0.5045577163733698  0.19922534954611143  0.7030710208986196  1.0000
  H   H17       1.0  0.2618102202780719  0.7758635237583321  0.6899524035825877  1.0000
  H   H18       1.0  0.738142779099739  0.22420205126216788  0.3100230180088063  1.0000
  C   C1        1.0  0.5008696551217396  0.4767489839609882  0.704507932733165  1.0000
  C   C2        1.0  0.499115891958297  0.5232861486144318  0.29548621817160386  1.0000
  C   C3        1.0  0.49823410797201734  0.5701873751111465  0.8507080734668552  1.0000
  C   C4        1.0  0.5017367774361788  0.4298697720936105  0.14927326928344095  1.0000
  C   C5        1.0  0.49874355718704083  0.5605457557202271  0.9601566792467157  1.0000
  C   C6        1.0  0.501218406653841  0.4395140925243128  0.03982501958640938  1.0000
  C   C7        1.0  0.6051220726231962  0.06140931317530365  0.4010489357513479  1.0000
  C   C8        1.0  0.39492114257975414  0.9385663307064366  0.5989694566131619  1.0000
  C   C9        1.0  0.6402929699918616  0.14046766263789584  0.44700834897436453  1.0000
  C   C10       1.0  0.35972764087922837  0.8595354665718773  0.5529917618116971  1.0000
  C   C11       1.0  0.5141519317209671  0.09722509049242943  0.5869381566207181  1.0000
  C   C12       1.0  0.4859181136887827  0.9027325211166682  0.4130938498028699  1.0000
  C   C13       1.0  0.4773816880812518  0.008046966558758585  0.5485428933035125  1.0000
  C   C14       1.0  0.5226733884119668  0.991919612179416  0.4514884483039909  1.0000
  C   C15       1.0  0.2690999458255163  0.4783010771743791  0.49691785713185516  1.0000
  C   C16       1.0  0.7308791305505977  0.5216794485752559  0.5030816456780159  1.0000
  C   C17       1.0  0.05068953182547631  0.5050456268947272  0.5925325799564974  1.0000
  C   C18       1.0  0.9492808969648363  0.49494188822153273  0.4074535401741457  1.0000
  C   C19       1.0  0.9851204449694463  0.40195078264194006  0.5838653479443325  1.0000
  C   C20       1.0  0.01485427318936418  0.5980298691666094  0.41612113578151627  1.0000
  C   C21       1.0  0.8702070685535618  0.5146623557326181  0.5028752441416914  1.0000
  C   C22       1.0  0.12976743081736689  0.48531975548786477  0.49711329354816075  1.0000
  C   C23       1.0  0.9339027233543717  0.6171074735774553  0.5095758747584754  1.0000
  C   C24       1.0  0.06606944678506467  0.3828762591705016  0.4904101049640347  1.0000
  C   C25       1.0  0.49903632596132036  0.5348202600494361  0.1797504274386769  1.0000
  C   C26       1.0  0.5009451206188514  0.4652281836504243  0.820237683664452  1.0000
  C   C27       1.0  0.503567601274078  0.33345666309345756  0.0061631338086484905  1.0000
  C   C28       1.0  0.4963926677685179  0.6666034398774272  0.9938231253868753  1.0000
  C   C29       1.0  0.5041516621275903  0.3456555277784901  0.8992112440078234  1.0000
  C   C30       1.0  0.4958326347289343  0.654393105195716  0.1007791191422953  1.0000
  C   C31       1.0  0.10186754739633831  0.5062748994484851  0.6959524229027424  1.0000
  C   C32       1.0  0.8980904498427266  0.49370283926691644  0.3040399899744913  1.0000
  C   C33       1.0  0.5300884224506247  0.8746601226950123  0.3136303938576149  1.0000
  C   C34       1.0  0.4700388737929445  0.12524479672519107  0.6864285462952538  1.0000
  C   C35       1.0  0.2585939791679195  0.801067186947279  0.600905953591955  1.0000
  C   C36       1.0  0.7413945548398859  0.19897222505714043  0.3990729153764079  1.0000
  N   N1        1.0  0.4077525667875151  0.8387431265580928  0.46319058999880286  1.0000
  N   N2        1.0  0.5922802019644493  0.1612483224178476  0.5368167802512078  1.0000
  O   O1        1.0  0.46612250380354664  0.5913224061789182  0.6335759484119239  1.0000
  O   O2        1.0  0.533872849316772  0.40870957110725953  0.36641485500643267  1.0000
  O   O3        1.0  0.5375043001814461  0.3713745494166859  0.683970262258825  1.0000
  O   O4        1.0  0.46246086903224887  0.6286567793623448  0.31602692133886023  1.0000
  O   O5        1.0  0.2872621192494124  0.5878529285074663  0.4676370478853401  1.0000
  O   O6        1.0  0.7127212840921189  0.41212509921963647  0.5323835297778674  1.0000
  O   O7        1.0  0.3573403063996423  0.3665812042253762  0.5247367331743933  1.0000
  O   O8        1.0  0.6426424342332097  0.6333992084159451  0.47526123935336534  1.0000
  O   O9        1.0  0.21758361318392622  0.47838561520745776  0.7273022137726458  1.0000
  O   O10       1.0  0.7823754227692066  0.52153057091909  0.2727242481961057  1.0000
  O   O11       1.0  0.5944716973243729  0.9302238349418561  0.2528313330620194  1.0000
  O   O12       1.0  0.4057863327033999  0.06955811406518823  0.7472889382022674  1.0000
  O   O13       1.0  0.17375321981803887  0.7913643079530177  0.5457357755300623  1.0000
  O   O14       1.0  0.8262553472145058  0.20866149506235132  0.4542314928256489  1.0000
