data_image0
_chemical_formula_structural       Zn4H21C40ClO14
_chemical_formula_sum              "Zn4 H21 C40 Cl1 O14"
_cell_length_a       15.092312888700306
_cell_length_b       15.227699420577672
_cell_length_c       19.504415474403054
_cell_angle_alpha    91.67760279922894
_cell_angle_beta     89.80467439082409
_cell_angle_gamma    91.75417194453755

_space_group_name_H-M_alt    "P 1"
_space_group_IT_number       1

loop_
  _space_group_symop_operation_xyz
  'x, y, z'

loop_
  _atom_site_type_symbol
  _atom_site_label
  _atom_site_symmetry_multiplicity
  _atom_site_fract_x
  _atom_site_fract_y
  _atom_site_fract_z
  _atom_site_occupancy
  Zn  Zn1       1.0  0.5653618827589354  0.5751017709067271  0.5622234291605965  1.0000
  Zn  Zn2       1.0  0.5787874448209464  0.4289861262770529  0.4415825733660485  1.0000
  Zn  Zn3       1.0  0.4246203063049093  0.57392830625421  0.44230578131919185  1.0000
  Zn  Zn4       1.0  0.4223656596888148  0.418298643011461  0.5504480719458371  1.0000
  H   H1        1.0  0.5941421998821212  0.5838342285509127  0.7720704959408169  1.0000
  H   H2        1.0  0.38737343333122715  0.5627016751091815  0.23042738834404028  1.0000
  H   H3        1.0  0.9980870124650496  0.6907914618314166  0.5029333280475472  1.0000
  H   H4        1.0  0.16128073617234415  0.33899854924448647  0.49079303222095677  1.0000
  H   H5        1.0  0.14654213619114387  0.6205002334056927  0.48925349999926493  1.0000
  H   H6        1.0  0.6486884583695912  0.4594129266980075  0.2348926904999332  1.0000
  H   H7        1.0  0.59803540575205  0.5178829433478142  0.9997048077127247  1.0000
  H   H8        1.0  0.35591939714417  0.410695859248797  0.8880018299743713  1.0000
  H   H9        1.0  0.3937677646376656  0.5657371688261179  0.10283491373342463  1.0000
  H   H10       1.0  0.36957780708053173  0.40406460729766286  0.7604914960906941  1.0000
  H   H11       1.0  0.3958744386497343  0.4861644420233091  0.9986147394692968  1.0000
  H   H12       1.0  0.6576531950061691  0.46530138885069755  0.10726649892190922  1.0000
  H   H13       1.0  0.5814827218421994  0.5911445718323873  0.8993506786172819  1.0000
  H   H14       1.0  0.7661045685011415  0.6719649315566015  0.525418114803337  1.0000
  H   H15       1.0  0.5130349334022027  0.16315302956325434  0.375037527147498  1.0000
  H   H16       1.0  0.5028564450105647  0.9934173787205367  0.6459208450147359  1.0000
  H   H17       1.0  0.49996252079486675  6.656275243699916e-05  0.36032602145464665  1.0000
  H   H18       1.0  0.4962691551538043  0.830879339258324  0.6306211768340335  1.0000
  H   H19       1.0  0.484693089658883  0.8534959837203502  0.411846170956487  1.0000
  H   H20       1.0  0.849124563393552  0.394010555131267  0.49047399133462494  1.0000
  H   H21       1.0  0.9960413772448221  0.3237957649989269  0.4893359422432157  1.0000
  C   C1        1.0  0.5077723060666628  0.2611705551225327  0.4887365309455164  1.0000
  C   C2        1.0  0.46191175526080036  0.5004951472299836  0.9776073590721385  1.0000
  C   C3        1.0  0.531070270845042  0.5124782524490002  0.021156562507826507  1.0000
  C   C4        1.0  0.48815004751607194  0.7353045304713318  0.5124636072195088  1.0000
  C   C5        1.0  0.5170932781750252  0.5096633097502875  0.2401404246651851  1.0000
  C   C6        1.0  0.5082011464426727  0.16282222907067012  0.48538779582568764  1.0000
  C   C7        1.0  0.4897493430933649  0.8330676928632172  0.519941564008697  1.0000
  C   C8        1.0  0.4998356195105983  0.9629790555214865  0.594772038012323  1.0000
  C   C9        1.0  0.49562804469776717  0.8729660088790537  0.5864694651663883  1.0000
  C   C10       1.0  0.48921054989224894  0.884754250801734  0.4628233698601606  1.0000
  C   C11       1.0  0.4966659028522713  0.9775334223171869  0.4695612993567055  1.0000
  C   C12       1.0  0.46918489537198127  0.4995597073832271  0.9029571082860957  1.0000
  C   C13       1.0  0.5009607892250685  0.0178124322380881  0.5371315347720513  1.0000
  C   C14       1.0  0.5059067529432753  0.11146573187245679  0.5432267466193609  1.0000
  C   C15       1.0  0.5082419871814564  0.12115446078180982  0.4192554229052306  1.0000
  C   C16       1.0  0.7345565481609313  0.5210150634528503  0.5037695359418068  1.0000
  C   C17       1.0  0.5013961169573163  0.03129246798229699  0.4113592573732704  1.0000
  C   C18       1.0  0.8322117943526947  0.5323075919428959  0.5015232234509527  1.0000
  C   C19       1.0  0.16224869168787143  0.48127128548627246  0.4894093768311836  1.0000
  C   C20       1.0  0.02919268428054519  0.3885039276032956  0.4899892544630904  1.0000
  C   C21       1.0  0.12009737756269347  0.3964231874631138  0.49028979237561304  1.0000
  C   C22       1.0  0.1127388503657514  0.5562346456712178  0.4899404732628272  1.0000
  C   C23       1.0  0.40841202430342344  0.4485625785813454  0.8626240866471309  1.0000
  C   C24       1.0  0.018793922968782798  0.5502307791802892  0.4937673433931878  1.0000
  C   C25       1.0  0.9763345807527983  0.4642591118623187  0.4921815781568598  1.0000
  C   C26       1.0  0.8831267073910921  0.45820525376833393  0.4939421510660298  1.0000
  C   C27       1.0  0.8751279634384448  0.617785598807579  0.5071239319758051  1.0000
  C   C28       1.0  0.2609836097753089  0.48850550180661395  0.49081424188522516  1.0000
  C   C29       1.0  0.9665650683720628  0.6253983194795794  0.5007430240233006  1.0000
  C   C30       1.0  0.511952337482839  0.5065876175462307  0.31629972880656965  1.0000
  C   C31       1.0  0.4902223229802587  0.4906086451346283  0.6824882416141878  1.0000
  C   C32       1.0  0.483343176328141  0.4926899777763438  0.7586575198984209  1.0000
  C   C33       1.0  0.5431877297634599  0.5451352983058655  0.7982041860315336  1.0000
  C   C34       1.0  0.415795970003103  0.4444008195451801  0.7915753595165003  1.0000
  C   C35       1.0  0.5361879378207347  0.5484529315349534  0.8691861278623776  1.0000
  C   C36       1.0  0.44924661835496954  0.5410945149414061  0.13152977677508207  1.0000
  C   C37       1.0  0.4454641754755215  0.5399998880144138  0.20264088757761564  1.0000
  C   C38       1.0  0.5934538476514887  0.48256859733950813  0.20527224390813367  1.0000
  C   C39       1.0  0.5979352112680587  0.48588272980968833  0.13424413006249847  1.0000
  C   C40       1.0  0.5253504220792847  0.513362333730413  0.09583267511033003  1.0000
  Cl  Cl1       1.0  0.5134649716174735  0.15938447395240724  0.6245785811283043  1.0000
  O   O1        1.0  0.4980005928233097  0.49890039835388217  0.4978740914264607  1.0000
  O   O2        1.0  0.5739896304686382  0.4673005980242664  0.3466255744364731  1.0000
  O   O3        1.0  0.43105390565458634  0.4452751597996709  0.6491374685789779  1.0000
  O   O4        1.0  0.4457800464635824  0.5429836934918625  0.3452555991672811  1.0000
  O   O5        1.0  0.5547889570793386  0.5348080697419347  0.6561618599070372  1.0000
  O   O6        1.0  0.8285408811777869  0.6916550066763776  0.5170316442418894  1.0000
  O   O7        1.0  0.6903134592212865  0.5860437684614865  0.5294512303158427  1.0000
  O   O8        1.0  0.3002952842712928  0.4245246226317576  0.5173179643606718  1.0000
  O   O9        1.0  0.5570534339681997  0.30105966270460965  0.44539095174155124  1.0000
  O   O10       1.0  0.4568767120484694  0.699963031382403  0.4571112504534584  1.0000
  O   O11       1.0  0.45633587035772644  0.2962766895119202  0.5325488687661349  1.0000
  O   O12       1.0  0.519515234322256  0.6944329288721605  0.5629343154013642  1.0000
  O   O13       1.0  0.6993299702194732  0.44920530387894786  0.48083450039532505  1.0000
  O   O14       1.0  0.29845953896327854  0.557218245671393  0.46616185439293656  1.0000
