data_image0
_chemical_formula_structural       Cd4H40C44N8O20
_chemical_formula_sum              "Cd4 H40 C44 N8 O20"
_cell_length_a       7.185698721951374
_cell_length_b       11.456880923447637
_cell_length_c       16.477849772238294
_cell_angle_alpha    82.41986363673637
_cell_angle_beta     77.04877417915807
_cell_angle_gamma    71.70013938428279

_space_group_name_H-M_alt    "P 1"
_space_group_IT_number       1

loop_
  _space_group_symop_operation_xyz
  'x, y, z'

loop_
  _atom_site_type_symbol
  _atom_site_label
  _atom_site_symmetry_multiplicity
  _atom_site_fract_x
  _atom_site_fract_y
  _atom_site_fract_z
  _atom_site_occupancy
  Cd  Cd1       1.0  0.20720732287698237  0.753452099083695  0.7772142919249561  1.0000
  Cd  Cd2       1.0  0.7406045850304254  0.7428111717925674  0.7222929683448172  1.0000
  Cd  Cd3       1.0  0.7927982361022928  0.2465444530494807  0.22278398343108557  1.0000
  Cd  Cd4       1.0  0.2593991203914284  0.2571835375962479  0.27770242669498657  1.0000
  H   H1        1.0  0.7504768227960313  0.6506214357142852  0.05893886944988217  1.0000
  H   H2        1.0  0.46226470291252775  0.8513405220868718  0.43978969642932236  1.0000
  H   H3        1.0  0.24952053621714732  0.3493843301406727  0.9410599431088542  1.0000
  H   H4        1.0  0.5377194103963348  0.1486726147455144  0.5602071168210471  1.0000
  H   H5        1.0  0.7018501025955147  0.5132586644615884  0.0418455269422964  1.0000
  H   H6        1.0  0.2572400495973712  0.9878150905593585  0.4587819803326028  1.0000
  H   H7        1.0  0.2981475089506062  0.4867443372768321  0.9581573257754386  1.0000
  H   H8        1.0  0.7427425565266786  0.012198967645204598  0.5412187070394197  1.0000
  H   H9        1.0  0.3660843625942858  0.612097943553124  0.10696946892777962  1.0000
  H   H10       1.0  0.08703004708618071  0.8893019772190626  0.3935562389480936  1.0000
  H   H11       1.0  0.6339080445203251  0.3879115077905481  0.8930295213987945  1.0000
  H   H12       1.0  0.9129572675118  0.11070747412460949  0.6064435713317023  1.0000
  H   H13       1.0  0.4046788976885337  0.7611538491249518  0.089812551288496  1.0000
  H   H14       1.0  0.25919738556002875  0.7404773360640675  0.4091176880208422  1.0000
  H   H15       1.0  0.5953229830204948  0.2388537594743596  0.9101793525090186  1.0000
  H   H16       1.0  0.7407918573171558  0.2595293511630672  0.5908816382960823  1.0000
  H   H17       1.0  0.8779199242607734  0.3613253135758612  0.763374613689649  1.0000
  H   H18       1.0  0.005523954003322917  0.1356047931358475  0.734644438416211  1.0000
  H   H19       1.0  0.12208736539744791  0.6386583393468044  0.23664860975959803  1.0000
  H   H20       1.0  0.9944749949293272  0.8643797811590018  0.2653752508173923  1.0000
  H   H21       1.0  0.47323367938351163  0.3599414125635434  0.766982147107832  1.0000
  H   H22       1.0  0.6019523889895949  0.13515424214049426  0.735486620386716  1.0000
  H   H23       1.0  0.526785659546178  0.6400560609418092  0.23300613942242174  1.0000
  H   H24       1.0  0.3980539377922768  0.8648423099926745  0.26450234203989  1.0000
  H   H25       1.0  0.8245580320202279  0.9354516669028285  0.048097229378868185  1.0000
  H   H26       1.0  0.8095596152884638  0.5640916889293877  0.45090647504071757  1.0000
  H   H27       1.0  0.17544411033006926  0.0645494920912313  0.9519020554122477  1.0000
  H   H28       1.0  0.19042092103708083  0.4359039418316044  0.5490959415907638  1.0000
  H   H29       1.0  0.49021118329081786  0.9517461338820964  0.8589583526751097  1.0000
  H   H30       1.0  0.3016429176876656  0.5460714918595286  0.6420488744718257  1.0000
  H   H31       1.0  0.5097855763397873  0.048255946484147196  0.1410444092091154  1.0000
  H   H32       1.0  0.6983320211967479  0.45393427399542924  0.35795099539860326  1.0000
  H   H33       1.0  0.212455491016087  0.7535912262826655  0.9795186454983876  1.0000
  H   H34       1.0  0.9490213693950552  0.7453182254906494  0.5204547653063258  1.0000
  H   H35       1.0  0.7875543652108661  0.2464117754557549  0.020473386726315768  1.0000
  H   H36       1.0  0.050972600932510666  0.2546893831086621  0.47954504887265154  1.0000
  H   H37       1.0  0.8040775555476214  0.6153070828513307  0.8962908964407461  1.0000
  H   H38       1.0  0.3170708319651112  0.883678842812813  0.6032563469103636  1.0000
  H   H39       1.0  0.1959330771132244  0.3846885479096613  0.10370990761150979  1.0000
  H   H40       1.0  0.682922455008381  0.11632876578649838  0.39674272643487996  1.0000
  C   C1        1.0  0.5019347799671149  0.6925586117973097  0.9169828317710865  1.0000
  C   C2        1.0  0.11440878517547746  0.8057722182478244  0.5827458124770644  1.0000
  C   C3        1.0  0.49807606803359783  0.30743609759150553  0.08301396581667571  1.0000
  C   C4        1.0  0.8855855313832848  0.19423354760713346  0.4172560425360813  1.0000
  C   C5        1.0  0.6591389599133421  0.6139489802600124  0.029871402239741912  1.0000
  C   C6        1.0  0.3048029247910834  0.8869755124679911  0.4697707051638318  1.0000
  C   C7        1.0  0.34086281737070584  0.3860531001062313  0.9701291903666486  1.0000
  C   C8        1.0  0.6951785111296258  0.1130367029922184  0.5302278427256794  1.0000
  C   C9        1.0  0.43249456615082954  0.6738805549918965  0.06140856241201221  1.0000
  C   C10       1.0  0.17036631057435866  0.8270688147849298  0.438382456712155  1.0000
  C   C11       1.0  0.5675026710793247  0.32612244674652396  0.9385875436826652  1.0000
  C   C12       1.0  0.8296234470954574  0.172936951070028  0.5616182604387132  1.0000
  C   C13       1.0  0.0927022995071381  0.5055043962061417  0.7859422198399243  1.0000
  C   C14       1.0  0.38744597162966665  0.9906787152905707  0.7139418490184184  1.0000
  C   C15       1.0  0.9073152043645648  0.4944930772992037  0.2140592952507419  1.0000
  C   C16       1.0  0.6125627326105699  0.0093150727260607  0.28605472539298654  1.0000
  C   C17       1.0  0.16844838605136664  0.3718538334611949  0.7681739292278776  1.0000
  C   C18       1.0  0.31092961399784247  0.1241180461847335  0.7322224858350879  1.0000
  C   C19       1.0  0.8315636035908864  0.6281371904389061  0.23183504597588467  1.0000
  C   C20       1.0  0.6890767311420594  0.875875741831905  0.2677778718644532  1.0000
  C   C21       1.0  0.03564087094057565  0.31011636925916963  0.7580229056977004  1.0000
  C   C22       1.0  0.10625773165338603  0.1863493658745057  0.7410995951930488  1.0000
  C   C23       1.0  0.9643667467322101  0.6898728118965707  0.24199567691650967  1.0000
  C   C24       1.0  0.8937484163632871  0.8136379725368812  0.2589114506401983  1.0000
  C   C25       1.0  0.3729772658470555  0.3092852915540405  0.7598866246946654  1.0000
  C   C26       1.0  0.44395418540486287  0.1861328434125227  0.7417722764454098  1.0000
  C   C27       1.0  0.6270366526928371  0.6907112605791353  0.24011183622757667  1.0000
  C   C28       1.0  0.5560559792417763  0.8138618659762925  0.25822378030862575  1.0000
  C   C29       1.0  0.8625678173383947  0.8682854778242586  0.8919285301645344  1.0000
  C   C30       1.0  0.625245687204668  0.6290613267340817  0.6078377348084274  1.0000
  C   C31       1.0  0.1374315636522354  0.1317184452863387  0.10806779910650018  1.0000
  C   C32       1.0  0.37474832003318437  0.3709352253990871  0.392160698786597  1.0000
  C   C33       1.0  0.6756599723094256  0.9363601398709703  0.9477853536772258  1.0000
  C   C34       1.0  0.561022832959047  0.562189055380493  0.5521994167095343  1.0000
  C   C35       1.0  0.32433744259049047  0.0636400977509126  0.052213443251837105  1.0000
  C   C36       1.0  0.4389575726165661  0.4378121036135667  0.44780166622700784  1.0000
  C   C37       1.0  0.6819734552775641  0.9634134697802281  0.02755537368217624  1.0000
  C   C38       1.0  0.6737240036855283  0.5363823420289435  0.4718533531551116  1.0000
  C   C39       1.0  0.3180267679018343  0.03658676784165489  0.9724477359064139  1.0000
  C   C40       1.0  0.3262557276443232  0.46361513147640915  0.5281503297823136  1.0000
  C   C41       1.0  0.492737100845915  0.9738074693274753  0.9207528348495939  1.0000
  C   C42       1.0  0.3877529048800673  0.5248965164499992  0.5798338212317302  1.0000
  C   C43       1.0  0.5072639742489996  0.0261936896665844  0.07925036557250559  1.0000
  C   C44       1.0  0.6122237000238757  0.4751046425440605  0.42016821400088133  1.0000
  N   N1        1.0  0.3523473199220389  0.696908409852675  0.9846055665924922  1.0000
  N   N2        1.0  0.03663216688120477  0.8024193448897492  0.5154947430605574  1.0000
  N   N3        1.0  0.6476563296130707  0.3030918277692152  0.015389844076978002  1.0000
  N   N4        1.0  0.9633584896239495  0.19759010645392283  0.4845074220632668  1.0000
  N   N5        1.0  0.6807703425502535  0.6494890693067319  0.9407520662168238  1.0000
  N   N6        1.0  0.273742203985087  0.8495687233873426  0.5586709206420649  1.0000
  N   N7        1.0  0.3192374629960425  0.3505056400820834  0.059247773825347794  1.0000
  N   N8        1.0  0.7262506430589682  0.1504398065841457  0.4413281111938403  1.0000
  O   O1        1.0  0.48034977521301386  0.7243542443100282  0.8420626266479231  1.0000
  O   O2        1.0  0.04996449469067715  0.7725069971101703  0.6576262047348463  1.0000
  O   O3        1.0  0.5196652664689906  0.2756367795900658  0.15793190301366164  1.0000
  O   O4        1.0  0.9500401564863384  0.2274941618838966  0.3423719954173521  1.0000
  O   O5        1.0  0.21567355579036016  0.5531798782177475  0.8031113683059415  1.0000
  O   O6        1.0  0.5759209419766976  0.9430797071698007  0.697578143544156  1.0000
  O   O7        1.0  0.7843456238276049  0.44681759528760506  0.19688562266286166  1.0000
  O   O8        1.0  0.4240904677364697  0.0569168449633679  0.3024214020169964  1.0000
  O   O9        1.0  0.9092715789390412  0.5606254867933415  0.7835205668952341  1.0000
  O   O10       1.0  0.2572553058766615  0.9357566410939596  0.7149009892287593  1.0000
  O   O11       1.0  0.09074845259443981  0.43937290808418783  0.21647651490707173  1.0000
  O   O12       1.0  0.742767805021508  0.06423069731742  0.2850916695351913  1.0000
  O   O13       1.0  0.8542958657665596  0.8452419596364464  0.8189740547180903  1.0000
  O   O14       1.0  0.5205669259857398  0.6519288628357742  0.6811275034401234  1.0000
  O   O15       1.0  0.14570966526933665  0.1547573566132598  0.18102422845278454  1.0000
  O   O16       1.0  0.479430226654486  0.3480695320417553  0.31887394281398673  1.0000
  O   O17       1.0  0.027709977102226307  0.8368722147656698  0.9168796594769546  1.0000
  O   O18       1.0  0.7850646798220067  0.6597835606586883  0.5824439066857963  1.0000
  O   O19       1.0  0.972290144030438  0.1631436861832469  0.08311679188692976  1.0000
  O   O20       1.0  0.21492941124595444  0.3402046991248752  0.4175545034647214  1.0000
