data_image0
_chemical_formula_structural       Zn8H36C48N12O26
_chemical_formula_sum              "Zn8 H36 C48 N12 O26"
_cell_length_a       16.57332268522631
_cell_length_b       16.585018650613485
_cell_length_c       16.507730100418346
_cell_angle_alpha    117.66492534398573
_cell_angle_beta     121.13093106807773
_cell_angle_gamma    90.78997645333203

_space_group_name_H-M_alt    "P 1"
_space_group_IT_number       1

loop_
  _space_group_symop_operation_xyz
  'x, y, z'

loop_
  _atom_site_type_symbol
  _atom_site_label
  _atom_site_symmetry_multiplicity
  _atom_site_fract_x
  _atom_site_fract_y
  _atom_site_fract_z
  _atom_site_occupancy
  Zn  Zn1       1.0  0.032213707708159206  0.9351648301245417  0.0764326735042502  1.0000
  Zn  Zn2       1.0  0.031022513544840515  0.1344480977874127  0.10049256398085052  1.0000
  Zn  Zn3       1.0  0.83371378002672  0.9482236327960291  0.8916916530141918  1.0000
  Zn  Zn4       1.0  0.042316804987571364  0.9651167425465699  0.9100566796720457  1.0000
  Zn  Zn5       1.0  0.430276961412858  0.55636131692345  0.8936759313162882  1.0000
  Zn  Zn6       1.0  0.4393624844334242  0.3625880120629502  0.8923665306478199  1.0000
  Zn  Zn7       1.0  0.46370161051327585  0.5567662300518208  0.10815531955629612  1.0000
  Zn  Zn8       1.0  0.628385365692303  0.5456461142377973  0.07722498141419722  1.0000
  H   H1        1.0  0.881637536522682  0.3237362455170754  0.5402065215309477  1.0000
  H   H2        1.0  0.926643620322771  0.2652587590352127  0.6035557564480527  1.0000
  H   H3        1.0  0.8929944337870309  0.15596606588236026  0.4399232239289645  1.0000
  H   H4        1.0  0.11782867824337022  0.35093735789647695  0.6530262590720994  1.0000
  H   H5        1.0  0.2621599202187639  0.2358622521260898  0.4892199655138966  1.0000
  H   H6        1.0  0.9452492787302091  0.10662071686915199  0.306710604216704  1.0000
  H   H7        1.0  0.7753867457003523  0.37404552913430666  0.8168620340534929  1.0000
  H   H8        1.0  0.6993896618358092  0.3059556778656328  0.6768380471376574  1.0000
  H   H9        1.0  0.853916400230581  0.45022107797424826  0.7530227120986339  1.0000
  H   H10       1.0  0.664118106900311  0.4389467193357318  0.8035798925417126  1.0000
  H   H11       1.0  0.6879034859932461  0.7369092102526267  0.9246288179948791  1.0000
  H   H12       1.0  0.868563038548821  0.6157281232138985  0.8153382306535946  1.0000
  H   H13       1.0  0.5913885115370618  0.026524627926086515  0.21910950967433246  1.0000
  H   H14       1.0  0.6280967391916974  0.14166797000530093  0.3156535504774424  1.0000
  H   H15       1.0  0.6194543864858985  0.029981339305265926  0.39217521009175016  1.0000
  H   H16       1.0  0.5523541504964199  0.8649901198564149  0.24072070589729577  1.0000
  H   H17       1.0  0.23687403057177664  0.7609526902199945  0.9740715839712024  1.0000
  H   H18       1.0  0.3896596282351865  0.06471538038776001  0.2418037001832545  1.0000
  H   H19       1.0  0.8132646216932927  0.42325156797965485  0.42637675175985384  1.0000
  H   H20       1.0  0.707473299902041  0.3653120257824297  0.3917037515318569  1.0000
  H   H21       1.0  0.8268161879223681  0.2519948237369789  0.367605250958583  1.0000
  H   H22       1.0  0.6808688911082327  0.3750883032636736  0.23221300028226466  1.0000
  H   H23       1.0  0.692322725247216  0.21282660748742896  0.9468290976916975  1.0000
  H   H24       1.0  0.8426776649520987  0.1739543406595772  0.2246038940106843  1.0000
  H   H25       1.0  0.04260056884020012  0.4842573716286082  0.8714826549410831  1.0000
  H   H26       1.0  0.004438911268920347  0.41827989311148883  0.737232461696955  1.0000
  H   H27       1.0  0.898736713011111  0.3297517980691466  0.7766454573720977  1.0000
  H   H28       1.0  0.1542685729502154  0.40290332669241724  0.8607744164495585  1.0000
  H   H29       1.0  0.2558127195263893  0.23807479797724077  0.011268198484600603  1.0000
  H   H30       1.0  0.9515871905850515  0.2380597835930089  0.8625225548936156  1.0000
  H   H31       1.0  0.8415834931691463  0.9841969134925677  0.37193785397424506  1.0000
  H   H32       1.0  0.7567997691961426  0.042152907873870035  0.36555046310057554  1.0000
  H   H33       1.0  0.903225425954446  0.09449431773781217  0.5842585690201646  1.0000
  H   H34       1.0  0.7315727510782466  0.8612791686585837  0.3167321080931202  1.0000
  H   H35       1.0  0.7125166498930116  0.7311086179786199  0.48178319223957544  1.0000
  H   H36       1.0  0.8882856292690493  0.03226103197827273  0.6801009489316173  1.0000
  C   C1        1.0  0.021475419450816057  0.22867288314554907  0.4803363940971082  1.0000
  C   C2        1.0  0.11385234090823103  0.2982115565481962  0.5790784522474937  1.0000
  C   C3        1.0  0.2002148045022807  0.2972174521902389  0.5830409081210347  1.0000
  C   C4        1.0  0.19525767420839193  0.2335083458379187  0.48689052343703304  1.0000
  C   C5        1.0  0.10198297082371967  0.16671468701893127  0.38675100719893857  1.0000
  C   C6        1.0  0.016721132891149276  0.16103228715218176  0.38473924342625315  1.0000
  C   C7        1.0  0.09001363263215009  0.10608908511997578  0.27776423758766805  1.0000
  C   C8        1.0  0.2983761896688223  0.3641148640707357  0.6951107873443122  1.0000
  C   C9        1.0  0.7626819536731019  0.5139071619780251  0.792413822314586  1.0000
  C   C10       1.0  0.6958720052981917  0.5064573988033769  0.8184509610447674  1.0000
  C   C11       1.0  0.670500820757681  0.586469616562148  0.866926684875537  1.0000
  C   C12       1.0  0.7085392854489853  0.6749503034310321  0.8880178398341555  1.0000
  C   C13       1.0  0.7820298754072041  0.6844993216409208  0.8711127828555264  1.0000
  C   C14       1.0  0.8094653067635987  0.6057519841189813  0.8248497996302006  1.0000
  C   C15       1.0  0.839036077366238  0.782678456300772  0.9141044976446224  1.0000
  C   C16       1.0  0.6137820968344414  0.5767346618536138  0.910580218454065  1.0000
  C   C17       1.0  0.4816656388557447  0.9739250910493809  0.24729218512278808  1.0000
  C   C18       1.0  0.48243385453798737  0.8789844549269002  0.20058994028137528  1.0000
  C   C19       1.0  0.39478152006720524  0.80271077049958  0.10215432292957159  1.0000
  C   C20       1.0  0.305124518905508  0.8202293150838854  0.0517360143528691  1.0000
  C   C21       1.0  0.30257505563255893  0.913916950366456  0.10459731313812173  1.0000
  C   C22       1.0  0.39071901803718834  0.9912802911550711  0.2008878989278529  1.0000
  C   C23       1.0  0.2017111100004456  0.9263264733006122  0.05891387389037559  1.0000
  C   C24       1.0  0.40034470734160266  0.7029664619255128  0.053503240842268  1.0000
  C   C25       1.0  0.7552660409705821  0.2685320490205071  0.2352889581384403  1.0000
  C   C26       1.0  0.7042200452587223  0.3196382652374438  0.1891584886691078  1.0000
  C   C27       1.0  0.6818847707515231  0.2987635891463753  0.085833571983926  1.0000
  C   C28       1.0  0.7109909995415079  0.22885400023579894  0.0276033678120697  1.0000
  C   C29       1.0  0.771747084117777  0.18628726676122653  0.0808275782014789  1.0000
  C   C30       1.0  0.7932074216646612  0.205618547009017  0.18278192748508099  1.0000
  C   C31       1.0  0.8264422844511969  0.12852210395773506  0.0397941403579125  1.0000
  C   C32       1.0  0.6293784864068  0.3570522153209978  0.0421564621802588  1.0000
  C   C33       1.0  0.041879706196560666  0.3204386598963395  0.8491843997398973  1.0000
  C   C34       1.0  0.1385621992658771  0.35451513901292486  0.8821199219997949  1.0000
  C   C35       1.0  0.21474254113152824  0.32553380191198755  0.9408290936048687  1.0000
  C   C36       1.0  0.19685969244940787  0.2619980431940191  0.9672232177161105  1.0000
  C   C37       1.0  0.1017217838635106  0.23210337200778494  0.9395036484049726  1.0000
  C   C38       1.0  0.02476902257959792  0.2609161060359427  0.8818070526330715  1.0000
  C   C39       1.0  0.08456944142605496  0.1683077357931637  0.9740051788490831  1.0000
  C   C40       1.0  0.3166467005585076  0.36858126151697235  0.9768994242288116  1.0000
  C   C41       1.0  0.8086252342600204  0.9593034818668684  0.49854141661294443  1.0000
  C   C42       1.0  0.7505798332972375  0.8695655806862986  0.3945598240129583  1.0000
  C   C43       1.0  0.7172032459227254  0.7883255481551286  0.3899759643853359  1.0000
  C   C44       1.0  0.7404241865473294  0.7947172737659611  0.48748141230878167  1.0000
  C   C45       1.0  0.8039641628785859  0.8828671189514592  0.5917306430981526  1.0000
  C   C46       1.0  0.8378692240266333  0.9641602617384916  0.5978486555447731  1.0000
  C   C47       1.0  0.8438065569019456  0.8917628546319846  0.7014385850291092  1.0000
  C   C48       1.0  0.6596022984023829  0.692544274589075  0.2799155879392358  1.0000
  N   N1        1.0  0.9381439365381466  0.29617940834013007  0.5674554641996963  1.0000
  N   N2        1.0  0.9315505518863034  0.22472390594908379  0.4702819118299004  1.0000
  N   N3        1.0  0.7701289088794211  0.35335150200952364  0.744732659277453  1.0000
  N   N4        1.0  0.7863080385465009  0.43496166985670454  0.7401418377513663  1.0000
  N   N5        1.0  0.6290059828616421  0.0757588762480808  0.3045296358001366  1.0000
  N   N6        1.0  0.5742467439415576  0.05254942742348593  0.3417694269370912  1.0000
  N   N7        1.0  0.7777608595591234  0.3642121798532969  0.4158423058319869  1.0000
  N   N8        1.0  0.7712209902852293  0.2774655590313059  0.3310179633884971  1.0000
  N   N9        1.0  0.9843400148207236  0.4303597071542313  0.7902410422501164  1.0000
  N   N10       1.0  0.9638461344960233  0.34359459307056284  0.7842940716239896  1.0000
  N   N11       1.0  0.8280155966328733  0.042589117222071635  0.4169914533462276  1.0000
  N   N12       1.0  0.8385728141936678  0.04415254381805763  0.5080893556966614  1.0000
  O   O1        1.0  0.9806589774741138  0.9951925324525631  0.9892621924005311  1.0000
  O   O2        1.0  0.12457987316368963  0.15006285159960697  0.2498536306164851  1.0000
  O   O3        1.0  0.04366993176870443  0.015232613670662028  0.21784898291353733  1.0000
  O   O4        1.0  0.36260615441904076  0.32565930105830904  0.7337930890526537  1.0000
  O   O5        1.0  0.30928754137300274  0.4538692609298565  0.7448211283128643  1.0000
  O   O6        1.0  0.789710042259749  0.8374801958313752  0.8934649684502247  1.0000
  O   O7        1.0  0.9342696219243295  0.8039117791604651  0.9709950754042114  1.0000
  O   O8        1.0  0.6518957657358159  0.5421519160867305  0.9718279276938874  1.0000
  O   O9        1.0  0.5364704932138338  0.6023888872548041  0.8864999274607896  1.0000
  O   O10       1.0  0.1579159117326655  0.9228912524952049  0.966548098946589  1.0000
  O   O11       1.0  0.16767235338517852  0.9359925743522267  0.11533829753442147  1.0000
  O   O12       1.0  0.4206497878215457  0.6690415840392772  0.11434724987083911  1.0000
  O   O13       1.0  0.38632517846474457  0.6631184974191484  0.9581042223778906  1.0000
  O   O14       1.0  0.7773115425284017  0.0499365361340763  0.9418465702902025  1.0000
  O   O15       1.0  0.9213959906042888  0.1654161437024513  0.11164685425606538  1.0000
  O   O16       1.0  0.6682126812818793  0.44869042227031736  0.11278177426864029  1.0000
  O   O17       1.0  0.550471512364176  0.3121080527390419  0.9399142486159349  1.0000
  O   O18       1.0  0.09579579021483652  0.08674970480677041  0.9315359993102631  1.0000
  O   O19       1.0  0.06186052081132232  0.20182401170097106  0.043820524013767695  1.0000
  O   O20       1.0  0.3666078741813833  0.4529583748669167  0.06831368793321961  1.0000
  O   O21       1.0  0.34233316268664293  0.31981454422214745  0.9136044706086608  1.0000
  O   O22       1.0  0.7906118003709892  0.9086481667843171  0.7379396567894432  1.0000
  O   O23       1.0  0.9300202873459469  0.8830907817948698  0.7489760172883776  1.0000
  O   O24       1.0  0.6809068978258138  0.6773323762680901  0.2107064904701801  1.0000
  O   O25       1.0  0.5939911041143658  0.6315937296234039  0.2614570573244137  1.0000
  O   O26       1.0  0.48157130674563586  0.503422527755525  0.9878911029179847  1.0000
