data_image0
_chemical_formula_structural       Mn2H16C8N8O16
_chemical_formula_sum              "Mn2 H16 C8 N8 O16"
_cell_length_a       7.225217172683619
_cell_length_b       8.612913571719005
_cell_length_c       8.612889103178054
_cell_angle_alpha    83.82807825832106
_cell_angle_beta     71.00356412045157
_cell_angle_gamma    71.00274483446032

_space_group_name_H-M_alt    "P 1"
_space_group_IT_number       1

loop_
  _space_group_symop_operation_xyz
  'x, y, z'

loop_
  _atom_site_type_symbol
  _atom_site_label
  _atom_site_symmetry_multiplicity
  _atom_site_fract_x
  _atom_site_fract_y
  _atom_site_fract_z
  _atom_site_occupancy
  Mn  Mn1       1.0  1.6910972533011125e-06  6.856785716996945e-07  0.49999973037269996  1.0000
  Mn  Mn2       1.0  0.49999993106631274  0.5000007858805804  0.9999989780309092  1.0000
  H   H1        1.0  0.032909584480471224  0.6766987622884743  0.6845444963850227  1.0000
  H   H2        1.0  0.4670914593417733  0.3154677371390805  0.3233022543018862  1.0000
  H   H3        1.0  0.9670868623672745  0.3233014558835024  0.3154574891061588  1.0000
  H   H4        1.0  0.5329060455551017  0.6845336687495305  0.676694672010079  1.0000
  H   H5        1.0  0.25001457689549517  0.38331710397086743  0.6166761430408129  1.0000
  H   H6        1.0  0.7499833729971571  0.616683080034953  0.38332195964949994  1.0000
  H   H7        1.0  0.2500081399431693  0.8054382331317245  0.19455812730358693  1.0000
  H   H8        1.0  0.7499961127030872  0.19456067524380669  0.8054419080438251  1.0000
  H   H9        1.0  0.7848516795226104  0.023534952326386412  0.28512942356801574  1.0000
  H   H10       1.0  0.7151525929403422  0.7148708932420647  0.9764645052565367  1.0000
  H   H11       1.0  0.21514770723418047  0.9764652330491901  0.7148717766709609  1.0000
  H   H12       1.0  0.28484532386193007  0.28512930853171536  0.023537087608545403  1.0000
  H   H13       1.0  0.9629228181420403  0.107312505344531  0.20561936356943997  1.0000
  H   H14       1.0  0.5370961143170233  0.7943731281310208  0.8926877179545087  1.0000
  H   H15       1.0  0.037078038569269785  0.8926876636328487  0.7943814440434237  1.0000
  H   H16       1.0  0.46290329450002327  0.20562704539924684  0.10731115550128584  1.0000
  C   C1        1.0  0.13235640813884703  0.6392578793391691  0.5609601780479351  1.0000
  C   C2        1.0  0.3676727195516421  0.43904991191309506  0.36074083128744405  1.0000
  C   C3        1.0  0.8676391266570961  0.36074479444369706  0.43904178146973283  1.0000
  C   C4        1.0  0.6323252303410102  0.5609502720927252  0.6392572714028689  1.0000
  C   C5        1.0  0.2500184938927034  0.4776097621764421  0.5223861495028999  1.0000
  C   C6        1.0  0.7499775300195212  0.5223916660330232  0.4776123328267585  1.0000
  C   C7        1.0  0.25000620340007634  0.7110798392284822  0.28891753466392334  1.0000
  C   C8        1.0  0.7499951203672668  0.2889190960207983  0.7110821225441128  1.0000
  N   N1        1.0  0.5641579179539208  0.009394177429477705  0.6652217601817866  1.0000
  N   N2        1.0  0.9358451833883663  0.3347718183191901  0.9906050688080297  1.0000
  N   N3        1.0  0.43584441974203963  0.9906059692270408  0.33477749141338364  1.0000
  N   N4        1.0  0.0641546483641946  0.6652271451735957  0.009397307809294405  1.0000
  N   N5        1.0  0.13793850770403535  0.7583046975026094  0.44410517051678516  1.0000
  N   N6        1.0  0.3620708843264565  0.5558907095570406  0.24168800204306246  1.0000
  N   N7        1.0  0.8620623600374062  0.2416954655521125  0.5558944737044912  1.0000
  N   N8        1.0  0.637930428410755  0.4441082316148909  0.7583128185565611  1.0000
  O   O1        1.0  0.7578636228613718  0.9321376349235494  0.6459024091590209  1.0000
  O   O2        1.0  0.7421466043153658  0.3540846235906444  0.06784309345158589  1.0000
  O   O3        1.0  0.24213724488006963  0.06786252813117949  0.35409723506224816  1.0000
  O   O4        1.0  0.2578532605275826  0.645914322134182  0.9321557929909615  1.0000
  O   O5        1.0  0.43540972386468013  0.9488748712689415  0.7725896146237118  1.0000
  O   O6        1.0  0.06458390563557971  0.22740703527074402  0.051126333081690206  1.0000
  O   O7        1.0  0.5645911328466368  0.051125297708431106  0.22741119298915183  1.0000
  O   O8        1.0  0.9354134422338447  0.7725907332130006  0.948876841774599  1.0000
  O   O9        1.0  0.507098665315489  0.13333204549894623  0.5846184294634256  1.0000
  O   O10       1.0  0.9928975387022522  0.4153770916133084  0.8666684738054754  1.0000
  O   O11       1.0  0.4929022024259525  0.8666681175557757  0.4153812147578505  1.0000
  O   O12       1.0  0.007107535149124494  0.5846156882105618  0.1333308557102555  1.0000
  O   O13       1.0  0.9184236048743416  0.027520191906226895  0.2909484263318022  1.0000
  O   O14       1.0  0.5815829011799779  0.7090450330599367  0.9724802971782224  1.0000
  O   O15       1.0  0.08157624893848245  0.9724787597412573  0.7090516235023401  1.0000
  O   O16       1.0  0.4184164966069375  0.29095514639298875  0.027519739669159545  1.0000
