data_image0
_chemical_formula_structural       La4H40C28N4O36
_chemical_formula_sum              "La4 H40 C28 N4 O36"
_cell_length_a       7.276481904
_cell_length_b       9.885589691729509
_cell_length_c       15.9635
_cell_angle_alpha    103.59233487636676
_cell_angle_beta     90.0
_cell_angle_gamma    90.0

_space_group_name_H-M_alt    "P 1"
_space_group_IT_number       1

loop_
  _space_group_symop_operation_xyz
  'x, y, z'

loop_
  _atom_site_type_symbol
  _atom_site_label
  _atom_site_symmetry_multiplicity
  _atom_site_fract_x
  _atom_site_fract_y
  _atom_site_fract_z
  _atom_site_occupancy
  La  La1       1.0  0.8620470830212386  0.9904942017377465  0.24024110099826146  1.0000
  La  La2       1.0  0.3620430909821692  0.5094956189652322  0.2597592655329635  1.0000
  La  La3       1.0  0.1379650239284089  0.0094882579420386  0.7597565342164001  1.0000
  La  La4       1.0  0.6379470273193704  0.49049308504357464  0.7402467955927604  1.0000
  H   H1        1.0  0.3245304573219485  0.9525141112105047  0.22212749184890157  1.0000
  H   H2        1.0  0.8245248293274657  0.547482994542996  0.277865164898742  1.0000
  H   H3        1.0  0.6754651581416198  0.0474902036208462  0.7778795883251559  1.0000
  H   H4        1.0  0.17545704323104166  0.45252340173136213  0.7221271838991824  1.0000
  H   H5        1.0  0.1983266115465341  0.8391868245939875  0.16605860394412278  1.0000
  H   H6        1.0  0.6983264807140799  0.6608248512605499  0.3339311618171833  1.0000
  H   H7        1.0  0.8016896182746294  0.1608060423008268  0.833948689452356  1.0000
  H   H8        1.0  0.3016650118779722  0.3391971558363522  0.6660571945967461  1.0000
  H   H9        1.0  0.0884452141145573  0.1838153540086935  0.40644444491118037  1.0000
  H   H10       1.0  0.5884409604105869  0.3161826405209709  0.0935600554067406  1.0000
  H   H11       1.0  0.9115600213825559  0.8161733500001134  0.5935566047822076  1.0000
  H   H12       1.0  0.4115574036339993  0.6838164707028653  0.9064443881780588  1.0000
  H   H13       1.0  0.1217209101438286  0.22371037210129427  0.3135159156142463  1.0000
  H   H14       1.0  0.6217249021828979  0.2762928260358848  0.18648558343156907  1.0000
  H   H15       1.0  0.8782747053197397  0.7762876984010418  0.6864864972230008  1.0000
  H   H16       1.0  0.3782748361521939  0.7237000408589367  0.8135148192454549  1.0000
  H   H17       1.0  0.5051864415383562  0.8488363943689805  0.2950677935915705  1.0000
  H   H18       1.0  0.0051961924043553  0.6511648742705276  0.20492797471395355  1.0000
  H   H19       1.0  0.4948215425397677  0.1511627168548557  0.7049285064156903  1.0000
  H   H20       1.0  0.9948007973497184  0.3488436034468307  0.7950715677242854  1.0000
  H   H21       1.0  0.5212560204286305  0.7999984564018661  0.19625037202755638  1.0000
  H   H22       1.0  0.0212616484231134  0.69999448646562  0.3037485695978289  1.0000
  H   H23       1.0  0.4787437179064541  0.1999996141004701  0.803748282235439  1.0000
  H   H24       1.0  0.9787367156214657  0.3000119098087382  0.6962531756357108  1.0000
  H   H25       1.0  0.7045410223836086  0.9959132386034071  0.04707416926490277  1.0000
  H   H26       1.0  0.204538404635052  0.5040984372511375  0.4529368950838019  1.0000
  H   H27       1.0  0.2954628388229992  0.004100442721473  0.9529349004820415  1.0000
  H   H28       1.0  0.7954517136664876  0.4959204476812573  0.5470735583943307  1.0000
  H   H29       1.0  0.5703415544424857  0.8824631468495455  0.0665353778334747  1.0000
  H   H30       1.0  0.0703389366939291  0.6175454068404846  0.43347335284682487  1.0000
  H   H31       1.0  0.4296595581831043  0.1175463715893201  0.9334693274975122  1.0000
  H   H32       1.0  0.9296525558981159  0.3824672337628883  0.5665293011492877  1.0000
  H   H33       1.0  0.7466671492735131  0.0023728450266347  0.5952587259604556  1.0000
  H   H34       1.0  0.2466672801059744  0.49763347527505175  0.904745106753765  1.0000
  H   H35       1.0  0.2533435833856217  0.9976408362982383  0.4047459587832022  1.0000
  H   H36       1.0  0.7533324582291172  0.502377083885321  0.09525912360861348  1.0000
  H   H37       1.0  0.4874979484316455  0.3434006299866112  0.5127759999878236  1.0000
  H   H38       1.0  0.9875046890517183  0.1565890387710311  0.9872210243562588  1.0000
  H   H39       1.0  0.512494918450912  0.6565963997942248  0.48721937066953547  1.0000
  H   H40       1.0  0.012497797864377  0.8434079910097977  0.012777478446309887  1.0000
  C   C1        1.0  0.758536896376512  0.0022032074216654  0.460090115838497  1.0000
  C   C2        1.0  0.2585287814659267  0.4977937463864989  0.03991047444474561  1.0000
  C   C3        1.0  0.2414738362826299  0.9977927816376635  0.5399094883617295  1.0000
  C   C4        1.0  0.7414654597071362  0.5022116091663591  0.9600917457574096  1.0000
  C   C5        1.0  0.7095832942512602  0.05629678897847871  0.5455376676761858  1.0000
  C   C6        1.0  0.2095696821786532  0.4437012055511858  0.9544630740674831  1.0000
  C   C7        1.0  0.2904246898268639  0.9437096072958724  0.4544621982702281  1.0000
  C   C8        1.0  0.7904176875418756  0.5563051907231724  0.04554055045318248  1.0000
  C   C9        1.0  0.6163266890741143  0.1856522274613326  0.5680535835726275  1.0000
  C   C10       1.0  0.11631719987302352  0.3143468077898319  0.9319448039153071  1.0000
  C   C11       1.0  0.3836867921660385  0.8143593724205402  0.4319476661049676  1.0000
  C   C12       1.0  0.8836811641715558  0.6856512627124971  0.06805322391864618  1.0000
  C   C13       1.0  0.5667574048020327  0.24731601723032534  0.4998892932413383  1.0000
  C   C14       1.0  0.0667616585060102  0.2526778144133246  0.00011146908966709771  1.0000
  C   C15       1.0  0.4332437078235571  0.7526799718290036  0.5001040466684754  1.0000
  C   C16       1.0  0.9332325826670527  0.747324418975019  0.999888417444083  1.0000
  C   C17       1.0  0.6203190029949397  0.1852983821503429  0.4165622398758585  1.0000
  C   C18       1.0  0.1203177595368885  0.3146933680503068  0.08343947239237078  1.0000
  C   C19       1.0  0.379694478245213  0.814690321858464  0.5834337983852007  1.0000
  C   C20       1.0  0.8796847273792139  0.6852994988445147  0.9165603038556112  1.0000
  C   C21       1.0  0.8668199939496477  0.8684883385084561  0.43059358963498073  1.0000
  C   C22       1.0  0.3668146276200802  0.6315139708525592  0.0694085944213825  1.0000
  C   C23       1.0  0.1331893644189819  0.1315159763228948  0.569407852677706  1.0000
  C   C24       1.0  0.6331864850055171  0.3684861810927842  0.9305928684786335  1.0000
  C   C25       1.0  0.5759019338310197  0.2507243801523629  0.34270749859833655  1.0000
  C   C26       1.0  0.0758951932109397  0.2492715329342943  0.1572960723696895  1.0000
  C   C27       1.0  0.4241129216996384  0.7492768125144806  0.6572897307588191  1.0000
  C   C28       1.0  0.9241155394481951  0.7507213339605201  0.8427037038782925  1.0000
  N   N1        1.0  0.7177342112441849  0.0661690731550948  0.39638526478111646  1.0000
  N   N2        1.0  0.21773434207663914  0.43382475848855506  0.1036186296950916  1.0000
  N   N3        1.0  0.2822710242529283  0.933826915904227  0.6036143394191099  1.0000
  N   N4        1.0  0.7822653962584527  0.5661712305707738  0.8963828537922538  1.0000
  O   O1        1.0  0.199702276343352  0.9367450989983936  0.1971671078761759  1.0000
  O   O2        1.0  0.6996952740583637  0.5632613732486362  0.3028231534410678  1.0000
  O   O3        1.0  0.8003015848632558  0.0632519307824353  0.8028357799296799  1.0000
  O   O4        1.0  0.3002879727906489  0.4367523080762439  0.6971596062861491  1.0000
  O   O5        1.0  0.0767101474811795  0.1519578280830771  0.34306909141547237  1.0000
  O   O6        1.0  0.5767017709056859  0.3480328813960654  0.15692996367616263  1.0000
  O   O7        1.0  0.9232978365969444  0.8480287944827225  0.6569297760699371  1.0000
  O   O8        1.0  0.4233062131724382  0.6519599854987561  0.8430741975751058  1.0000
  O   O9        1.0  0.5502851587934076  0.8840918760016052  0.24384824263844956  1.0000
  O   O10       1.0  0.0502852896258617  0.6159073111949027  0.25614972846238265  1.0000
  O   O11       1.0  0.4497187024132003  0.1159113981082456  0.7561549275009367  1.0000
  O   O12       1.0  0.9497103258377066  0.3840970036364482  0.7438467024179756  1.0000
  O   O13       1.0  0.6473925259692379  0.9631055339456296  0.09371181501206392  1.0000
  O   O14       1.0  0.1473912825111867  0.5369009383013932  0.4062972391764176  1.0000
  O   O15       1.0  0.3526085866563591  0.0369060659362361  0.9062931932397827  1.0000
  O   O16       1.0  0.8525933386283313  0.46310858013747236  0.5937080925836111  1.0000
  O   O17       1.0  0.9186870919482715  0.843639031183443  0.3510721356427737  1.0000
  O   O18       1.0  0.418691345652249  0.6563622374560651  0.1489349083854918  1.0000
  O   O19       1.0  0.0813057749342789  0.1563704872554226  0.6489294375430106  1.0000
  O   O20       1.0  0.581309766973348  0.3436358330462639  0.8510769008873706  1.0000
  O   O21       1.0  0.9006880091871353  0.7885255425537707  0.47960212746602326  1.0000
  O   O22       1.0  0.4006867657290912  0.711464278149208  0.020403250497537294  1.0000
  O   O23       1.0  0.0993199748909888  0.2114683650625508  0.5203990531004692  1.0000
  O   O24       1.0  0.5992978554104269  0.2885275480241063  0.9796020121513889  1.0000
  O   O25       1.0  0.6558787698456996  0.1980742793200818  0.2710096596716056  1.0000
  O   O26       1.0  0.155845917706003  0.3019257966525899  0.22899201142196549  1.0000
  O   O27       1.0  0.3441374599754639  0.8019008953091884  0.7289806510296513  1.0000
  O   O28       1.0  0.8441167147854145  0.6980691516852389  0.7710118263211143  1.0000
  O   O29       1.0  0.4650228014914575  0.35203549629626  0.3554202074837533  1.0000
  O   O30       1.0  0.9649979334298919  0.1479541724613753  0.1445774432893785  1.0000
  O   O31       1.0  0.5350085455252724  0.6479552891555471  0.6445617258302219  1.0000
  O   O32       1.0  0.0350004306146872  0.852021002167895  0.8554128674118784  1.0000
  O   O33       1.0  0.5753645862430474  0.24691533945170357  0.6481994465386904  1.0000
  O   O34       1.0  0.0753564713324693  0.2530826550779608  0.8517969102016918  1.0000
  O   O35       1.0  0.4246255320584922  0.7530858532151399  0.3517952771022975  1.0000
  O   O36       1.0  0.9246322726785721  0.7469195783103899  0.14819921775780634  1.0000
