data_image0
_chemical_formula_structural       Ag2H50C26Br2N12
_chemical_formula_sum              "Ag2 H50 C26 Br2 N12"
_cell_length_a       9.71497902119523
_cell_length_b       10.800466879721505
_cell_length_c       11.832483906231648
_cell_angle_alpha    96.35274022448175
_cell_angle_beta     109.0333051276653
_cell_angle_gamma    108.10507895579424

_space_group_name_H-M_alt    "P 1"
_space_group_IT_number       1

loop_
  _space_group_symop_operation_xyz
  'x, y, z'

loop_
  _atom_site_type_symbol
  _atom_site_label
  _atom_site_symmetry_multiplicity
  _atom_site_fract_x
  _atom_site_fract_y
  _atom_site_fract_z
  _atom_site_occupancy
  Ag  Ag1       1.0  0.8459103682631978  0.3615359252007266  0.4970266213591615  1.0000
  Ag  Ag2       1.0  0.15409733849667623  0.6384532817430183  0.5029708936230293  1.0000
  H   H1        1.0  0.3152197708077935  0.013231634462393102  0.3058578884264804  1.0000
  H   H2        1.0  0.6847763393936149  0.9867804465128457  0.6941534365351387  1.0000
  H   H3        1.0  0.05645034947737321  0.058220327364018894  0.8453205935204409  1.0000
  H   H4        1.0  0.9435444001369861  0.9417691343581255  0.15467600202511997  1.0000
  H   H5        1.0  0.07479351947885247  0.9241380008257777  0.754245878830872  1.0000
  H   H6        1.0  0.9251960499337386  0.0758593621940946  0.24574399589013035  1.0000
  H   H7        1.0  0.8965718496540375  0.9001523777817368  0.774819206701217  1.0000
  H   H8        1.0  0.10342206473935531  0.09984496324846501  0.22517267722753329  1.0000
  H   H9        1.0  0.7378569278999478  0.8546707586022888  0.538172467082795  1.0000
  H   H10       1.0  0.26213969664973297  0.14533753490906778  0.46181842114904004  1.0000
  H   H11       1.0  0.9197083605974826  0.8630419125142269  0.5296070841668765  1.0000
  H   H12       1.0  0.08027360185715794  0.13695548112050202  0.470379061599445  1.0000
  H   H13       1.0  0.8265038191988197  0.9723869589518869  0.46404365166922196  1.0000
  H   H14       1.0  0.17349050513315228  0.027628382740729797  0.5359462980055197  1.0000
  H   H15       1.0  0.2159836494541949  0.1654335118882244  0.7239803080578469  1.0000
  H   H16       1.0  0.7840251273431919  0.8345556502228108  0.2760166450207393  1.0000
  H   H17       1.0  0.2993376389768728  0.29899395648851623  0.8579121115376581  1.0000
  H   H18       1.0  0.7006732344482175  0.7010023576870452  0.14208931764933647  1.0000
  H   H19       1.0  0.2611312994052213  0.33417945422905854  0.708946593469676  1.0000
  H   H20       1.0  0.7388776278497388  0.6658075964479123  0.2910477063731419  1.0000
  H   H21       1.0  0.07297019655945998  0.45009002188863406  0.7329770688303014  1.0000
  H   H22       1.0  0.9270538091331774  0.549916203695581  0.2670286190597366  1.0000
  H   H23       1.0  0.132262324061756  0.42588501378748583  0.8867903830508366  1.0000
  H   H24       1.0  0.8677573119856207  0.5741089561652757  0.11320730312926491  1.0000
  H   H25       1.0  0.9293250755318496  0.3622779889267562  0.7864001374150718  1.0000
  H   H26       1.0  0.07067516891092404  0.6377286880170701  0.2136034391589234  1.0000
  H   H27       1.0  0.6839653199548225  0.014287302181855898  0.2867734611109825  1.0000
  H   H28       1.0  0.31603575002381484  0.9857163425356885  0.7132301114797456  1.0000
  H   H29       1.0  0.5805376877930045  0.9070963575783324  0.13615810921979943  1.0000
  H   H30       1.0  0.4194610235412384  0.0929044523475113  0.8638488478273699  1.0000
  H   H31       1.0  0.4974541721147645  0.8864715729010868  0.25070640586123716  1.0000
  H   H32       1.0  0.502561488566073  0.11353305725189243  0.749305380844099  1.0000
  H   H33       1.0  0.2622904194527465  0.9206705320571021  0.09421956009937567  1.0000
  H   H34       1.0  0.7377143301135123  0.07932916438122108  0.9057880880466911  1.0000
  H   H35       1.0  0.3558824151043395  0.9565409153782978  0.9881827961283774  1.0000
  H   H36       1.0  0.6441155095924956  0.043463021178531805  0.011826718995379784  1.0000
  H   H37       1.0  0.29864003507630343  0.0792354029962539  0.05423080189512322  1.0000
  H   H38       1.0  0.7013528650125596  0.9207768124771079  0.9457822087773168  1.0000
  H   H39       1.0  0.46206198388314607  0.3656578453294515  0.3423752881123221  1.0000
  H   H40       1.0  0.5379244577626779  0.6343325048633022  0.6576132264971831  1.0000
  H   H41       1.0  0.4628910212199315  0.4506983182156005  0.22114627284415178  1.0000
  H   H42       1.0  0.5370932673847123  0.5492920901743402  0.7788425142081365  1.0000
  H   H43       1.0  0.6437387258780022  0.46757561594873925  0.3400771705712273  1.0000
  H   H44       1.0  0.3562351360664949  0.5324231696483324  0.6599145160900476  1.0000
  H   H45       1.0  0.5803249869439641  0.21996874289298768  0.05903450055453165  1.0000
  H   H46       1.0  0.4196834876704543  0.7800368567708276  0.9409720487688913  1.0000
  H   H47       1.0  0.6720205239321616  0.3945993055506917  0.1284739778877864  1.0000
  H   H48       1.0  0.32797383400401264  0.6053941587619462  0.8715219645782426  1.0000
  H   H49       1.0  0.4692672429740982  0.3254305814706839  0.029931864073297686  1.0000
  H   H50       1.0  0.5307360591104526  0.674560979174423  0.9700722544879807  1.0000
  C   C1        1.0  0.6597659797473413  0.08915791676423622  0.5477772939669592  1.0000
  C   C2        1.0  0.3402284079895139  0.9108503142223867  0.45223751061028145  1.0000
  C   C3        1.0  0.5527988971749168  0.0964033507160593  0.4358807078324247  1.0000
  C   C4        1.0  0.44720117601421816  0.9036078637782271  0.564136688857495  1.0000
  C   C5        1.0  0.39708778138523126  0.006595350072011305  0.39130789664844917  1.0000
  C   C6        1.0  0.6029159909197618  0.9934217047113093  0.6087066984899536  1.0000
  C   C7        1.0  0.9310503888378395  0.1513172841868951  0.6639970350688458  1.0000
  C   C8        1.0  0.06894750150943452  0.8486792218306005  0.3360017719526454  1.0000
  C   C9        1.0  0.9955757932493869  0.9751434306891229  0.7633177620446149  1.0000
  C   C10       1.0  0.004416905197807401  0.0248487304732166  0.23666918301456968  1.0000
  C   C11       1.0  0.850338926289112  0.9234000959718499  0.5405401667188842  1.0000
  C   C12       1.0  0.14965234293676838  0.07660593265018181  0.4594406614219722  1.0000
  C   C13       1.0  0.21761678315538555  0.26330651989901105  0.7610540433715799  1.0000
  C   C14       1.0  0.7823902050788762  0.736690849566898  0.2389464222737416  1.0000
  C   C15       1.0  0.04847007836204404  0.3796006853212361  0.7911747974520295  1.0000
  C   C16       1.0  0.951551426058565  0.6204023593207211  0.20882490988562818  1.0000
  C   C17       1.0  0.541295575545604  0.17741864078886485  0.25699846451982467  1.0000
  C   C18       1.0  0.4587057920671214  0.8225759025105431  0.7430036658350048  1.0000
  C   C19       1.0  0.5675911682005224  0.9604994942941832  0.21429785481841182  1.0000
  C   C20       1.0  0.4324106007754979  0.03948619933294141  0.7857096442160342  1.0000
  C   C21       1.0  0.3460987592375204  0.0005565383820566978  0.07232180361084771  1.0000
  C   C22       1.0  0.6538853840457862  0.9994384704948089  0.9276825062862314  1.0000
  C   C23       1.0  0.523497256488298  0.3979134783834084  0.2817239051290201  1.0000
  C   C24       1.0  0.47649007753733513  0.6020910901588935  0.7182692878570763  1.0000
  C   C25       1.0  0.5626522982549887  0.30665161902966526  0.0999815440717668  1.0000
  C   C26       1.0  0.4373498417611614  0.6933519808551692  0.9000214666153568  1.0000
  Br  Br1       1.0  0.07472862178622114  0.381323556551486  0.4023607372481521  1.0000
  Br  Br2       1.0  0.9252671377418126  0.6186778495939436  0.597606577255661  1.0000
  N   N1        1.0  0.8141792101409919  0.18059648039822213  0.595294871797982  1.0000
  N   N2        1.0  0.1858326898742816  0.8194070306745684  0.4047115954010393  1.0000
  N   N3        1.0  0.9385950671964808  0.0250588307435535  0.6549859704311487  1.0000
  N   N4        1.0  0.06141054040001864  0.9749476535049697  0.3450156479892428  1.0000
  N   N5        1.0  0.06109785200181512  0.2530257429660026  0.751243268303682  1.0000
  N   N6        1.0  0.938908142136647  0.7469742496391589  0.24874613358721112  1.0000
  N   N7        1.0  0.6012655081610775  0.19740010568339272  0.3772361913129884  1.0000
  N   N8        1.0  0.39873193081349007  0.8026027346362951  0.6227705754158065  1.0000
  N   N9        1.0  0.49774325674252407  0.05675733358212653  0.1743857889735168  1.0000
  N   N10       1.0  0.5022611108306594  0.9432415183649142  0.8256259216930958  1.0000
  N   N11       1.0  0.522034225111142  0.28180465041983627  0.20540226974725326  1.0000
  N   N12       1.0  0.4779707819229202  0.7181980648802905  0.794605671842909  1.0000
