data_image0
_chemical_formula_structural       Zn8H80C104N32O4
_chemical_formula_sum              "Zn8 H80 C104 N32 O4"
_cell_length_a       14.882115508892227
_cell_length_b       14.94549216556441
_cell_length_c       22.968413238190845
_cell_angle_alpha    89.99789226783537
_cell_angle_beta     90.01187934094551
_cell_angle_gamma    100.44753766113803

_space_group_name_H-M_alt    "P 1"
_space_group_IT_number       1

loop_
  _space_group_symop_operation_xyz
  'x, y, z'

loop_
  _atom_site_type_symbol
  _atom_site_label
  _atom_site_symmetry_multiplicity
  _atom_site_fract_x
  _atom_site_fract_y
  _atom_site_fract_z
  _atom_site_occupancy
  Zn  Zn1       1.0  0.4188035985538363  0.5519068190860921  0.9302789243894194  1.0000
  Zn  Zn2       1.0  0.4188635826463241  0.551976287207168  0.069565135381886  1.0000
  Zn  Zn3       1.0  0.9310432190966793  0.06805807137563846  0.430415345409564  1.0000
  Zn  Zn4       1.0  0.931096928530259  0.0680911881149342  0.5697601953219547  1.0000
  Zn  Zn5       1.0  0.5701245675070509  0.4153953000088818  0.07103188851998249  1.0000
  Zn  Zn6       1.0  0.5700973238471931  0.4153522371393379  0.9288390791961161  1.0000
  Zn  Zn7       1.0  0.07439808946322303  0.9239171955381381  0.5703973322288148  1.0000
  Zn  Zn8       1.0  0.07433797448108244  0.923922611694664  0.4296636170086073  1.0000
  H   H1        1.0  0.7145329401811934  0.9057006677844014  0.054702950760272984  1.0000
  H   H2        1.0  0.6292420648698497  0.056599869380875086  0.9062584609141522  1.0000
  H   H3        1.0  0.1464575349744521  0.5698381935781641  0.5937255085921221  1.0000
  H   H4        1.0  0.14568103227502863  0.5695518984275625  0.40627410308675127  1.0000
  H   H5        1.0  0.5737723469496104  0.7595635231685165  0.2570612012215604  1.0000
  H   H6        1.0  0.5736961528736727  0.7595209191586108  0.7428474763718284  1.0000
  H   H7        1.0  0.025746189175251313  0.19530344549330894  0.8074043867034958  1.0000
  H   H8        1.0  0.025941913887557212  0.19594054491722804  0.19289654684662585  1.0000
  H   H9        1.0  0.12019419177438097  0.28138807492963736  0.8834272752270492  1.0000
  H   H10       1.0  0.1203183678815449  0.281826964017  0.11677918918523027  1.0000
  H   H11       1.0  0.6714106497098343  0.852267106232098  0.3286293908643215  1.0000
  H   H12       1.0  0.7145162710983327  0.9058217829717067  0.9451884953770457  1.0000
  H   H13       1.0  0.671377987903071  0.8522853620202396  0.671352672273208  1.0000
  H   H14       1.0  0.33237553076433807  0.125810145342804  0.8508518800523815  1.0000
  H   H15       1.0  0.3324769422638596  0.12622161136015114  0.14943119828114246  1.0000
  H   H16       1.0  0.7904627765279244  0.6201090874098798  0.3759068112044303  1.0000
  H   H17       1.0  0.7905219047093583  0.6201879139371943  0.6241107263345284  1.0000
  H   H18       1.0  0.6952500905598952  0.5282747215555118  0.30238960433597833  1.0000
  H   H19       1.0  0.6952702580543499  0.528300749304165  0.6975488153825464  1.0000
  H   H20       1.0  0.23790049723586287  0.03902929657765241  0.7764838864497746  1.0000
  H   H21       1.0  0.2380709578242062  0.039620383162386495  0.2238871575455191  1.0000
  H   H22       1.0  0.06863744059073441  0.645320951798638  0.0937920860905237  1.0000
  H   H23       1.0  0.23258000603108533  0.41979420644037196  0.554716368527245  1.0000
  H   H24       1.0  0.0686164377588554  0.6455037734340152  0.906085026477676  1.0000
  H   H25       1.0  0.5771965344489302  0.1536401397682425  0.5938328930733191  1.0000
  H   H26       1.0  0.577086916094906  0.1526471906488993  0.4061420995470754  1.0000
  H   H27       1.0  0.9025813506240895  0.6315842243706128  0.09381755996425056  1.0000
  H   H28       1.0  0.9025640095927798  0.6317577572819741  0.9060430168822647  1.0000
  H   H29       1.0  0.4109567403721073  0.13660066973377383  0.5938604225229938  1.0000
  H   H30       1.0  0.4108671032039766  0.13560683629467718  0.40609996978773194  1.0000
  H   H31       1.0  0.7473759125053405  0.5694787416146381  0.9055404509726157  1.0000
  H   H32       1.0  0.7474378348358711  0.569386168951162  0.09427675151971468  1.0000
  H   H33       1.0  0.2546782840506125  0.07551017428482247  0.4056177344298319  1.0000
  H   H34       1.0  0.2327083676446193  0.4200113504108175  0.4454654659728731  1.0000
  H   H35       1.0  0.25486111538676676  0.07549028190589979  0.5944174711600921  1.0000
  H   H36       1.0  0.5562523371878854  0.7423627748830057  0.09417774921777068  1.0000
  H   H37       1.0  0.5561985201856176  0.7424187229410039  0.9056722018544503  1.0000
  H   H38       1.0  0.0724047884321735  0.25589613195718647  0.5943377458281488  1.0000
  H   H39       1.0  0.07246688858618461  0.2557001561018808  0.4057801058641458  1.0000
  H   H40       1.0  0.2174909227563901  0.6181252700798935  0.9056295185525867  1.0000
  H   H41       1.0  0.21764031778364062  0.6182569849079088  0.09421692113469497  1.0000
  H   H42       1.0  0.7288276079325159  0.1325051170121654  0.40578462615325606  1.0000
  H   H43       1.0  0.7287646476873773  0.13253573211081005  0.5943353036982868  1.0000
  H   H44       1.0  0.6228582830138265  0.21214816605915843  0.09407423007433377  1.0000
  H   H45       1.0  0.7332609452335461  0.06448799811045798  0.05521333684446718  1.0000
  H   H46       1.0  0.622763092227146  0.21209317586967558  0.9058904280057049  1.0000
  H   H47       1.0  0.1333481338208244  0.7233670085323567  0.5941363015990503  1.0000
  H   H48       1.0  0.13341399630797918  0.723386702280699  0.40589692023868196  1.0000
  H   H49       1.0  0.4323335801435634  0.2240285342772808  0.9108838592277236  1.0000
  H   H50       1.0  0.43233482701535314  0.22417854259787615  0.08928247384562839  1.0000
  H   H51       1.0  0.9305099053738746  0.7390232496373346  0.4026855389508554  1.0000
  H   H52       1.0  0.9304912256771942  0.7390450180878645  0.5973106495843792  1.0000
  H   H53       1.0  0.2339736015168938  0.4038952673220492  0.08469133858091739  1.0000
  H   H54       1.0  0.23387820346997046  0.40364773366670187  0.9152663465604715  1.0000
  H   H55       1.0  0.7436867608938015  0.930229101391653  0.5902085026867352  1.0000
  H   H56       1.0  0.7330907982735083  0.06457895187472217  0.944601275092296  1.0000
  H   H57       1.0  0.7436164841998334  0.9301144002004023  0.4098521130380561  1.0000
  H   H58       1.0  0.611489819722074  0.8997770480873301  0.09370681496599079  1.0000
  H   H59       1.0  0.6114538192669485  0.8998101637144417  0.9061695559049807  1.0000
  H   H60       1.0  0.1295365710011254  0.4130905401387537  0.5938129864073715  1.0000
  H   H61       1.0  0.12973157200618599  0.4128737384586358  0.40622451500220075  1.0000
  H   H62       1.0  0.38318187458134634  0.6413982112863934  0.8408607171047746  1.0000
  H   H63       1.0  0.3832334903694559  0.6414819399638176  0.159033033433218  1.0000
  H   H64       1.0  0.9060529047557894  0.16437130638723826  0.34135357107112435  1.0000
  H   H65       1.0  0.9060326798336574  0.16398706946954184  0.6588391591730128  1.0000
  H   H66       1.0  0.46144564280839256  0.8903603913001064  0.03821927191993519  1.0000
  H   H67       1.0  0.2499665748263595  0.5785484649918757  0.5549876374779926  1.0000
  H   H68       1.0  0.4614706564436801  0.8904708906757219  0.9616304731541871  1.0000
  H   H69       1.0  0.979094903472209  0.4019135211515916  0.5382202689561664  1.0000
  H   H70       1.0  0.9792614211305306  0.4021535431492893  0.46161986147138373  1.0000
  H   H71       1.0  0.48073901103304445  0.04922083223701891  0.03839097716470968  1.0000
  H   H72       1.0  0.4806140183281045  0.04932722872641189  0.9617068177187347  1.0000
  H   H73       1.0  0.9971783093782065  0.560740925540145  0.5385664794740777  1.0000
  H   H74       1.0  0.9968709926790568  0.5609546010032744  0.4618645896384307  1.0000
  H   H75       1.0  0.6702285272013667  0.4829529897941144  0.20217484073447875  1.0000
  H   H76       1.0  0.6700618858641079  0.48279824578666813  0.7976556719715402  1.0000
  H   H77       1.0  0.16125830363779417  0.965724017116543  0.7058604854701683  1.0000
  H   H78       1.0  0.2495687202538619  0.5787142905419601  0.44468089466344196  1.0000
  H   H79       1.0  0.16127397621417572  0.966132131012614  0.29431833344069946  1.0000
  H   H80       1.0  0.629556749816814  0.0565890900800454  0.09368080211256569  1.0000
  C   C1        1.0  0.5050072842250017  0.6007535400811362  0.8096262168576512  1.0000
  C   C2        1.0  0.29314332746508137  0.37079563965844636  0.9176056426868298  1.0000
  C   C3        1.0  0.13133066293966783  0.7380877713564757  0.4521447122256886  1.0000
  C   C4        1.0  0.4366279530017749  0.6588223677651611  0.8058100900369637  1.0000
  C   C5        1.0  0.4366578445101581  0.6588385908569877  0.19411655025283633  1.0000
  C   C6        1.0  0.9478876437498515  0.16516026907245157  0.30032893678419004  1.0000
  C   C7        1.0  0.947746701553001  0.1646509251466028  0.6999216265685602  1.0000
  C   C8        1.0  0.8007318800877529  0.8941248847481802  0.5884390022349846  1.0000
  C   C9        1.0  0.8006876179460249  0.8940414621644022  0.41160745484270916  1.0000
  C   C10       1.0  0.1769175077889003  0.6287098097082547  0.9999254207891254  1.0000
  C   C11       1.0  0.687197602370439  0.14103341658921661  0.500043479967104  1.0000
  C   C12       1.0  0.623618638215589  0.16913623735572966  0.9999854764644666  1.0000
  C   C13       1.0  0.1370297894726136  0.6812262967026114  0.5000152546792619  1.0000
  C   C14       1.0  0.3018771169951576  0.28115781130048834  0.9031184950123926  1.0000
  C   C15       1.0  0.3019213360139402  0.2813914125177988  0.09698356940938169  1.0000
  C   C16       1.0  0.8061283914733935  0.8052381875683352  0.39329911571647347  1.0000
  C   C17       1.0  0.5050653922305345  0.6007991526781213  0.19026649829638836  1.0000
  C   C18       1.0  0.8061599002118527  0.8053098552219141  0.6067357161361498  1.0000
  C   C19       1.0  0.6478982350192694  0.9277002624725981  0.05418753362341279  1.0000
  C   C20       1.0  0.6478472609197325  0.9277479726341725  0.9457018812598291  1.0000
  C   C21       1.0  0.1656389120123904  0.44115969162110247  0.5542309815918499  1.0000
  C   C22       1.0  0.1656576243824404  0.4411446257175414  0.4458238426762548  1.0000
  C   C23       1.0  0.6604422291421557  0.033140738866769874  0.054285437748298186  1.0000
  C   C24       1.0  0.660290249443058  0.03317840577840058  0.945609080564125  1.0000
  C   C25       1.0  0.1773101835038844  0.5465813894970495  0.5542678777563593  1.0000
  C   C26       1.0  0.17697664056250775  0.546546313842207  0.44565042129221405  1.0000
  C   C27       1.0  0.5004322399919231  0.9197858347881576  0.9999495747120402  1.0000
  C   C28       1.0  0.010157801295648004  0.10081067828679831  0.3042533635422941  1.0000
  C   C29       1.0  0.017861569223150322  0.4317859494219434  0.4999870723091035  1.0000
  C   C30       1.0  0.5940748079070346  0.8877293353762712  0.9999419540925057  1.0000
  C   C31       1.0  0.11199988143992101  0.400729333997603  0.500018219035958  1.0000
  C   C32       1.0  0.6160075364638827  0.06748741102769171  0.999977566663986  1.0000
  C   C33       1.0  0.13218825671936685  0.5800991694685749  0.5000132226294695  1.0000
  C   C34       1.0  0.6120825309963466  0.5155014406248811  0.19319609110533517  1.0000
  C   C35       1.0  0.6119461941671035  0.5153773729326333  0.8066577048551478  1.0000
  C   C36       1.0  0.10899732392864792  0.005996751065538298  0.6969469034428355  1.0000
  C   C37       1.0  0.1090135539399881  0.006390813575727298  0.30324490455920017  1.0000
  C   C38       1.0  0.5131489140278093  0.02440787408069409  1.0642076723900014e-05  1.0000
  C   C39       1.0  0.010098150002917809  0.1003798327522958  0.6959743782263174  1.0000
  C   C40       1.0  0.029586975632675247  0.536129138761524  0.5001215225999047  1.0000
  C   C41       1.0  0.6219537000978407  0.7289358849244324  0.28250517311193585  1.0000
  C   C42       1.0  0.6218974182420354  0.7289185850319128  0.7174207169282949  1.0000
  C   C43       1.0  0.09260764592406899  0.1792382210255781  0.8173273909777092  1.0000
  C   C44       1.0  0.0927825802836395  0.17983276428190462  0.18296445646456755  1.0000
  C   C45       1.0  0.14675938623276608  0.22823218834530937  0.8600420377725156  1.0000
  C   C46       1.0  0.14689543418020176  0.22870821250684506  0.14020301928071177  1.0000
  C   C47       1.0  0.6762359195907449  0.7806944341330606  0.3238243735689109  1.0000
  C   C48       1.0  0.6762080808846421  0.7807112095742001  0.6761430070110207  1.0000
  C   C49       1.0  0.23629589719153898  0.21453262432658707  0.8710265845830704  1.0000
  C   C50       1.0  0.3944868179178442  0.2793962061605343  0.9147604511400401  1.0000
  C   C51       1.0  0.2363886130510124  0.21491104711097356  0.12918517401531196  1.0000
  C   C52       1.0  0.7406759503156619  0.7446128329073715  0.3571049248357382  1.0000
  C   C53       1.0  0.7406861960079922  0.7446647838837918  0.6428921904011203  1.0000
  C   C54       1.0  0.26461913969712464  0.141004579474945  0.8423599171017243  1.0000
  C   C55       1.0  0.26473365234323143  0.14144320241569372  0.15791472284247726  1.0000
  C   C56       1.0  0.7441660946992671  0.6518050202419801  0.3492978930812995  1.0000
  C   C57       1.0  0.7441818819883251  0.6518528434563321  0.6506896329365545  1.0000
  C   C58       1.0  0.6902707369030311  0.599819401147954  0.30760604409573483  1.0000
  C   C59       1.0  0.6902648588785921  0.5998381744565223  0.692342678531723  1.0000
  C   C60       1.0  0.2107763408729326  0.09179731374565851  0.7998760524277697  1.0000
  C   C61       1.0  0.39450055746382867  0.27954084501109827  0.08531829886926089  1.0000
  C   C62       1.0  0.2109297564054415  0.09233644433273007  0.20044195614516977  1.0000
  C   C63       1.0  0.6297736676972931  0.6378771728107611  0.2720430748642996  1.0000
  C   C64       1.0  0.6297323023297566  0.6378634699034008  0.7278812668019227  1.0000
  C   C65       1.0  0.1256126854734418  0.1132574627602665  0.783841278376144  1.0000
  C   C66       1.0  0.12579727486005507  0.113868456131371  0.21647600708202927  1.0000
  C   C67       1.0  0.03276841016581506  0.6423761187420924  0.05220424268338769  1.0000
  C   C68       1.0  0.03275623205691153  0.6424783388751011  0.9476683645119548  1.0000
  C   C69       1.0  0.5413223586680685  0.1496692248625919  0.5522085004873033  1.0000
  C   C70       1.0  0.541272029116847  0.1491572019798397  0.4477646360959254  1.0000
  C   C71       1.0  0.9383249389408235  0.6347794300870434  0.05220373178395479  1.0000
  C   C72       1.0  0.8956329586181228  0.7962134113903546  0.408743592318622  1.0000
  C   C73       1.0  0.9383141772791035  0.6348766931975192  0.947660016992472  1.0000
  C   C74       1.0  0.4466254877491309  0.1401720816110483  0.5522052184766294  1.0000
  C   C75       1.0  0.4465796638378449  0.1396513976540916  0.4477604838936457  1.0000
  C   C76       1.0  0.8880392781807627  0.6250246782667546  0.9999269881356054  1.0000
  C   C77       1.0  0.3961252220511682  0.1296937834841501  0.49998695215134586  1.0000
  C   C78       1.0  0.7331903735423922  0.5616868872513052  0.9518134359478193  1.0000
  C   C79       1.0  0.7332228919009792  0.561612580560734  0.04800176418604709  1.0000
  C   C80       1.0  0.2404316469999017  0.06809552159590031  0.4519129102138135  1.0000
  C   C81       1.0  0.24050858764505276  0.06809784448366679  0.5481307085231746  1.0000
  C   C82       1.0  0.08179199880405011  0.6409583897743546  0.9999381557596859  1.0000
  C   C83       1.0  0.8956484078787811  0.79626604925879  0.5912864598702395  1.0000
  C   C84       1.0  0.5908329903484243  0.1495014094636815  0.5000026459329304  1.0000
  C   C85       1.0  0.5494685570109893  0.7275297914965719  0.04792835434260209  1.0000
  C   C86       1.0  0.5494417275623249  0.7275607407636997  0.9519189689565405  1.0000
  C   C87       1.0  0.0654571616189514  0.2410497565930001  0.5480905145752145  1.0000
  C   C88       1.0  0.06551405652263752  0.24093652850775982  0.4520381744733085  1.0000
  C   C89       1.0  0.5829610655690017  0.5871527440442249  0.7769520180922951  1.0000
  C   C90       1.0  0.5830281323900977  0.5871919713963294  0.222946401691189  1.0000
  C   C91       1.0  0.08083675787393929  0.07461245723533952  0.26948902009153386  1.0000
  C   C92       1.0  0.08070046138997358  0.0740581982400244  0.7307794868213902  1.0000
  C   C93       1.0  0.7893527412440234  0.5915758515529603  0.9999125973233728  1.0000
  C   C94       1.0  0.29320024774850856  0.3709823878970511  0.08237641497864699  1.0000
  C   C95       1.0  0.29720030563235156  0.09679186579639067  0.5000091011691338  1.0000
  C   C96       1.0  0.5726564916911414  0.7852629141605548  0.9999311766048746  1.0000
  C   C97       1.0  0.09026779258118012  0.2982848690449629  0.5000439870037922  1.0000
  C   C98       1.0  0.23174741383055417  0.6153503946890595  0.9519156324772025  1.0000
  C   C99       1.0  0.23180801758166336  0.615392922731701  0.047925454381548584  1.0000
  C   C100      1.0  0.7431649966867794  0.13015370448550104  0.45208641090398044  1.0000
  C   C101      1.0  0.7431270556025282  0.13017060912176254  0.5480421002776409  1.0000
  C   C102      1.0  0.6213243911753851  0.2270136226753436  0.04781545558569179  1.0000
  C   C103      1.0  0.6212872226071012  0.226988638836076  0.9521456674247444  1.0000
  C   C104      1.0  0.13130168512885373  0.7380742001581664  0.547887066569963  1.0000
  N   N1        1.0  0.4921001319970982  0.5404229128235444  0.8548015959068633  1.0000
  N   N2        1.0  0.6518265998723082  0.515887389847414  0.029496731689164297  1.0000
  N   N3        1.0  0.15821502330770437  0.02434368241085849  0.47043949180923045  1.0000
  N   N4        1.0  0.15826004015334408  0.024346732738422402  0.5296364452263232  1.0000
  N   N5        1.0  0.5138224856754974  0.6425793067842774  0.029468927827821293  1.0000
  N   N6        1.0  0.5137972949237053  0.6425966833747838  0.9703502063340678  1.0000
  N   N7        1.0  0.027433725172002706  0.1567482746507878  0.5296543868362277  1.0000
  N   N8        1.0  0.027465481999954005  0.15667965044740842  0.47052666677234356  1.0000
  N   N9        1.0  0.31197210633538214  0.5957586400203497  0.9700454413181415  1.0000
  N   N10       1.0  0.31200777563169874  0.5957868315396978  0.029788062955674398  1.0000
  N   N11       1.0  0.8247991741109786  0.1140598561950625  0.47020667909229974  1.0000
  N   N12       1.0  0.4922092129433295  0.5405518150875182  0.14504425468911814  1.0000
  N   N13       1.0  0.8247775914134153  0.11407093979510556  0.5299731045454833  1.0000
  N   N14       1.0  0.6175400124984023  0.31232898151063887  0.029864213882845495  1.0000
  N   N15       1.0  0.6175169083367963  0.3123129497810808  0.9700763134363298  1.0000
  N   N16       1.0  0.1225719948365906  0.8220460350186017  0.5298827642346424  1.0000
  N   N17       1.0  0.12258909744599587  0.8220567626772352  0.47015073297884397  1.0000
  N   N18       1.0  0.43682736964859  0.36190742521796443  0.9331830451045346  1.0000
  N   N19       1.0  0.43683641441482024  0.36196758692599923  0.06676010713558608  1.0000
  N   N20       1.0  0.9397189743934079  0.8743394214806275  0.43274147793641043  1.0000
  N   N21       1.0  0.9397405722338447  0.8743887701041259  0.567298009700998  1.0000
  N   N22       1.0  0.3744515183621147  0.41808289856950154  0.06494422426071367  1.0000
  N   N23       1.0  0.0013251163472816044  0.05089953294640281  0.35447969424307496  1.0000
  N   N24       1.0  0.374415800814603  0.41799864187366614  0.9349390224685548  1.0000
  N   N25       1.0  0.8811557366472016  0.9344469548176589  0.565431848523147  1.0000
  N   N26       1.0  0.8811206791456601  0.9343828575392481  0.4346139286261347  1.0000
  N   N27       1.0  0.0014164298517798  0.05067531022152849  0.6456678683074768  1.0000
  N   N28       1.0  0.5574573967616842  0.489011767675983  0.14672835113337607  1.0000
  N   N29       1.0  0.5573058415027888  0.48883212266677134  0.8530949463751012  1.0000
  N   N30       1.0  0.06125732476650826  0.9933605340458841  0.6466363341325944  1.0000
  N   N31       1.0  0.061151929320452346  0.9935650432567871  0.3534872054193342  1.0000
  N   N32       1.0  0.6518048416490957  0.5159259510738679  0.970306172212531  1.0000
  O   O1        1.0  0.4311661798413269  0.7201992388333383  0.7712407758205158  1.0000
  O   O2        1.0  0.43117125310276083  0.7201364050898392  0.22872963808021038  1.0000
  O   O3        1.0  0.9360736052092022  0.216319277416666  0.2603597377103384  1.0000
  O   O4        1.0  0.9357674163105898  0.2156176716274345  0.7399527205983388  1.0000
