data_image0
_chemical_formula_structural       AlH12C27N3O12
_chemical_formula_sum              "Al1 H12 C27 N3 O12"
_cell_length_a       4.14712267340407
_cell_length_b       15.740261233325404
_cell_length_c       15.774440026687008
_cell_angle_alpha    60.07330888578452
_cell_angle_beta     85.87244047840032
_cell_angle_gamma    87.47349616747444

_space_group_name_H-M_alt    "P 1"
_space_group_IT_number       1

loop_
  _space_group_symop_operation_xyz
  'x, y, z'

loop_
  _atom_site_type_symbol
  _atom_site_label
  _atom_site_symmetry_multiplicity
  _atom_site_fract_x
  _atom_site_fract_y
  _atom_site_fract_z
  _atom_site_occupancy
  Al  Al1       1.0  0.01817360178282  0.4970079564240919  0.5012326165546028  1.0000
  H   H1        1.0  0.4448716365260239  0.9536725621020706  0.1372635135226972  1.0000
  H   H2        1.0  0.7024512066049482  0.39891874933221055  0.9477140243505678  1.0000
  H   H3        1.0  0.7872639696166885  0.15006782407392896  0.390593828075062  1.0000
  H   H4        1.0  0.3317025515740042  0.48855266632977384  0.24787983864945337  1.0000
  H   H5        1.0  0.3481325159174133  0.4000130120249705  0.15235709192159433  1.0000
  H   H6        1.0  0.2545081122313206  0.24585007866584618  0.7721163785920384  1.0000
  H   H7        1.0  0.2657797487744133  0.15214414568449539  0.9552253740411633  1.0000
  H   H8        1.0  0.5086872951359497  0.7673147957803367  0.4993248971795056  1.0000
  H   H9        1.0  0.5046550178985997  0.9505802162021623  0.4101425322909196  1.0000
  H   H10       1.0  0.08375477152609533  0.6771532988663082  0.29508128784449655  1.0000
  H   H11       1.0  0.39069394771148325  0.2006617873560188  0.5735409314351544  1.0000
  H   H12       1.0  0.33070192853612923  0.5796966351335157  0.7148392198857325  1.0000
  C   C1        1.0  0.5052639099655493  0.6490992976547574  0.4241122720588707  1.0000
  C   C2        1.0  0.5457175285019532  0.42487076325618733  0.4248730083340606  1.0000
  C   C3        1.0  0.48990637032305534  0.4243429508478726  0.6491305429070524  1.0000
  C   C4        1.0  0.47861959013618355  0.7584878925511022  0.3679100194196467  1.0000
  C   C5        1.0  0.47705255884211084  0.3734626078148935  0.757792880189989  1.0000
  C   C6        1.0  0.5554754281572016  0.3694929430821786  0.3713450238544881  1.0000
  C   C7        1.0  0.45305928727929523  0.8108127676200707  0.2656742028326778  1.0000
  C   C8        1.0  0.4567172882981295  0.913118132168634  0.21662874133480162  1.0000
  C   C9        1.0  0.60330978620447  0.41759542024986007  0.8069853399395163  1.0000
  C   C10       1.0  0.6052351858889294  0.3657217331848486  0.9087848365936542  1.0000
  C   C11       1.0  0.687369317393305  0.2740751137365223  0.4119684148456388  1.0000
  C   C12       1.0  0.6921193643348005  0.22469621816284763  0.35910113755993933  1.0000
  C   C13       1.0  0.43265546501659463  0.4146634265627612  0.27794937454847723  1.0000
  C   C14       1.0  0.44298067358391086  0.3658231150190474  0.2248977515568314  1.0000
  C   C15       1.0  0.35110586913099706  0.27861232205098213  0.8115292211740485  1.0000
  C   C16       1.0  0.35782977705027713  0.22655299727634304  0.91305233783627  1.0000
  C   C17       1.0  0.4923458997602027  0.8088696921401137  0.41999907472079206  1.0000
  C   C18       1.0  0.49198867070779795  0.9107178260967215  0.3705303548288514  1.0000
  C   C19       1.0  0.4781830262384191  0.9636534664245956  0.2680613091210093  1.0000
  C   C20       1.0  0.49306058058335367  0.07179430660272597  0.21409639919082937  1.0000
  C   C21       1.0  0.48362609449998933  0.270236818843884  0.962250955769996  1.0000
  C   C22       1.0  0.4930094143284977  0.2161177241372343  0.07011210052726112  1.0000
  C   C23       1.0  0.5677660571490649  0.26984249534610427  0.26601599260206404  1.0000
  C   C24       1.0  0.551105485152334  0.2155406634910335  0.2125167670362914  1.0000
  C   C25       1.0  0.43180156185942314  0.762334056360274  0.20475080888278543  1.0000
  C   C26       1.0  0.8184427592244817  0.22174355296991882  0.512255394273062  1.0000
  C   C27       1.0  0.7454936170395428  0.5187148429714554  0.7548650546145697  1.0000
  N   N1        1.0  0.45882104749304636  0.11834864988612989  0.11681745960560627  1.0000
  N   N2        1.0  0.5360984664707829  0.2684243273868177  0.1146256605136813  1.0000
  N   N3        1.0  0.5428687211683966  0.1170868909061795  0.2652484927311038  1.0000
  O   O1        1.0  0.2695977031706178  0.4063115555495784  0.608101936156537  1.0000
  O   O2        1.0  0.27298379350988716  0.6035966284332871  0.4856826320389091  1.0000
  O   O3        1.0  0.31023717130406686  0.48464495746416947  0.4100299406140453  1.0000
  O   O4        1.0  0.7268415774316779  0.48263783907245267  0.6047114705304256  1.0000
  O   O5        1.0  0.7745085272291804  0.4095889058430444  0.48105152187133654  1.0000
  O   O6        1.0  0.763055080685433  0.6102992637601262  0.40771475100356014  1.0000
  O   O7        1.0  0.2321375627118769  0.6844973567753099  0.24012283623174124  1.0000
  O   O8        1.0  0.5884936065681502  0.7906546141057972  0.12737611139289848  1.0000
  O   O9        1.0  0.6252282990164063  0.19765339930184211  0.5907662513983925  1.0000
  O   O10       1.0  0.10816457162967907  0.19924551996775355  0.5192648486047491  1.0000
  O   O11       1.0  0.5710776762416502  0.5968974722621141  0.700457902364491  1.0000
  O   O12       1.0  0.030138941307626482  0.5262574692793365  0.7683046176672339  1.0000
