data_image0
_chemical_formula_structural       Cu4H52C36S4I4N4
_chemical_formula_sum              "Cu4 H52 C36 S4 I4 N4"
_cell_length_a       9.67176755347153
_cell_length_b       9.903670813611361
_cell_length_c       17.064495427216134
_cell_angle_alpha    89.99943757286366
_cell_angle_beta     90.00011151156065
_cell_angle_gamma    116.12078352014488

_space_group_name_H-M_alt    "P 1"
_space_group_IT_number       1

loop_
  _space_group_symop_operation_xyz
  'x, y, z'

loop_
  _atom_site_type_symbol
  _atom_site_label
  _atom_site_symmetry_multiplicity
  _atom_site_fract_x
  _atom_site_fract_y
  _atom_site_fract_z
  _atom_site_occupancy
  Cu  Cu1       1.0  0.4095959268308746  0.5260009756271771  0.8960791206760635  1.0000
  Cu  Cu2       1.0  0.5904040179496874  0.4739989682000854  0.3960774782887101  1.0000
  Cu  Cu3       1.0  0.5458580583194815  0.42717132852418854  0.7979763745371075  1.0000
  Cu  Cu4       1.0  0.4541367821917107  0.5728317453729588  0.2979775289231554  1.0000
  H   H1        1.0  0.37764918083087906  0.9739378757143482  0.9126607839196128  1.0000
  H   H2        1.0  0.6223558283401687  0.026063904915425002  0.4126646832592301  1.0000
  H   H3        1.0  0.4598000550366307  0.8434927162379607  0.9122433779309135  1.0000
  H   H4        1.0  0.5402028391943928  0.15650457503777193  0.41224643607197464  1.0000
  H   H5        1.0  0.3482754572035135  0.8529946459816244  0.99363391690585  1.0000
  H   H6        1.0  0.6517228932776079  0.14699892696700095  0.4936377391985261  1.0000
  H   H7        1.0  0.08766048312643454  0.878361262127747  0.8972675336230654  1.0000
  H   H8        1.0  0.912344640748039  0.1216430832544759  0.3972753064120695  1.0000
  H   H9        1.0  0.05667149464471769  0.7590857318999864  0.9789139887682128  1.0000
  H   H10       1.0  0.9433280256254832  0.24091264165830492  0.47892345392075714  1.0000
  H   H11       1.0  0.9661891234955605  0.6824669372444346  0.8876005564702185  1.0000
  H   H12       1.0  0.03381502720413469  0.3175376157329808  0.3876097459325792  1.0000
  H   H13       1.0  0.24310544920684424  0.8659986561504668  0.7805346402678099  1.0000
  H   H14       1.0  0.7569063374442635  0.1340032097142156  0.2805439278901859  1.0000
  H   H15       1.0  0.12355296465031533  0.6690910701743675  0.7725120493185502  1.0000
  H   H16       1.0  0.8764583696834549  0.3309120964847807  0.27251740673766994  1.0000
  H   H17       1.0  0.32808177048261916  0.738258009249499  0.7801230881863576  1.0000
  H   H18       1.0  0.671926878503001  0.2617393915677511  0.2801262729276246  1.0000
  H   H19       1.0  0.14996138303757076  0.6301247749959982  0.0382197350845885  1.0000
  H   H20       1.0  0.8500314337994581  0.3698651117425058  0.5382210050772616  1.0000
  H   H21       1.0  0.09046859399591511  0.4348751745700525  0.033467705885037405  1.0000
  H   H22       1.0  0.9095335232330299  0.5651191289327712  0.5334702628164723  1.0000
  H   H23       1.0  0.6613456243590932  0.5055813248924039  0.947843521452619  1.0000
  H   H24       1.0  0.33865807433616607  0.49441299426275964  0.4478397248641955  1.0000
  H   H25       1.0  0.8784147575263576  0.4893103714334118  0.017868344702058905  1.0000
  H   H26       1.0  0.12158292705931473  0.5106900200380977  0.5178592080443423  1.0000
  H   H27       1.0  0.905301010857194  0.5274865485911134  0.16352857774018764  1.0000
  H   H28       1.0  0.09469137885128728  0.47251460097231046  0.6635225609381552  1.0000
  H   H29       1.0  0.7124311172621843  0.577635754918269  0.2383808183147949  1.0000
  H   H30       1.0  0.2875628984558105  0.42236165405000753  0.738375303503972  1.0000
  H   H31       1.0  0.10646790439600552  0.45983021613557895  0.17542027265674426  1.0000
  H   H32       1.0  0.8935291161182877  0.5401762807802798  0.6754241273880552  1.0000
  H   H33       1.0  0.17123166966417355  0.6549475611508199  0.1638436653075672  1.0000
  H   H34       1.0  0.8287751438277694  0.34506006022508007  0.6638462264980093  1.0000
  H   H35       1.0  0.2949373155167336  0.9220115833167242  0.4117108279265126  1.0000
  H   H36       1.0  0.7050578573809859  0.0779824913124614  0.9117130301567828  1.0000
  H   H37       1.0  0.3790131831818258  0.7937113913598848  0.41433774945090124  1.0000
  H   H38       1.0  0.6209840216684057  0.20628258472533642  0.9143414647258512  1.0000
  H   H39       1.0  0.1756371434779496  0.7268349945005497  0.4266446683065156  1.0000
  H   H40       1.0  0.8243604917453381  0.2731575996180311  0.9266482241280445  1.0000
  H   H41       1.0  0.12520783333278732  0.9180755093322546  0.2976376390293184  1.0000
  H   H42       1.0  0.8747910639167528  0.081925200504223  0.797639420518671  1.0000
  H   H43       1.0  0.0069738490797704505  0.72329644202118  0.3138835598432551  1.0000
  H   H44       1.0  0.9930255300260667  0.2767073572119827  0.8138831799431474  1.0000
  H   H45       1.0  0.0875609516166378  0.7901364311405387  0.21943174756275147  1.0000
  H   H46       1.0  0.9124311874361126  0.2098659317074123  0.7194316628642812  1.0000
  H   H47       1.0  0.41488692152452705  0.014201281169214002  0.2746089529915353  1.0000
  H   H48       1.0  0.5851115644583514  0.9857987408455953  0.7746128332943699  1.0000
  H   H49       1.0  0.3783425039624433  0.8826543577489331  0.1978300661830801  1.0000
  H   H50       1.0  0.6216548593188804  0.11734829268143442  0.6978348797409597  1.0000
  H   H51       1.0  0.49822107495513274  0.8847884124418497  0.27777740676543783  1.0000
  H   H52       1.0  0.5017758428083994  0.11521044954974263  0.7777826858890793  1.0000
  C   C1        1.0  0.35891446263840976  0.859920338167896  0.9294181160903181  1.0000
  C   C2        1.0  0.6410868274321544  0.1400778006011336  0.4294219664247977  1.0000
  C   C3        1.0  0.07210391452847632  0.7656686875705389  0.9149952997028737  1.0000
  C   C4        1.0  0.9278995665190877  0.23433422181421543  0.41500419960726026  1.0000
  C   C5        1.0  0.2284591450628852  0.7546509655273609  0.7999911385406053  1.0000
  C   C6        1.0  0.7715515191923286  0.24535055596179933  0.299993941846033  1.0000
  C   C7        1.0  0.21345553721193514  0.7459712835909542  0.8894845718936184  1.0000
  C   C8        1.0  0.7865443696888903  0.2540242391925034  0.389486755889486  1.0000
  C   C9        1.0  0.18427344433847995  0.5446198517147778  0.016907913623086305  1.0000
  C   C10       1.0  0.8157256896308739  0.4553748388161054  0.5169074818113091  1.0000
  C   C11       1.0  0.3294507237497654  0.5593171442075329  0.05701578866558781  1.0000
  C   C12       1.0  0.6705461951093383  0.4406791078277408  0.5570129365890679  1.0000
  C   C13       1.0  0.5631017372474929  0.547055826019033  0.05313713949706771  1.0000
  C   C14       1.0  0.4368998932501641  0.4529460723699331  0.5531368882455185  1.0000
  C   C15       1.0  0.6747745596962604  0.5210997595580553  0.011136620094028203  1.0000
  C   C16       1.0  0.32524100301964864  0.4788969234809245  0.5111372679582615  1.0000
  C   C17       1.0  0.7950550579168693  0.5128990310099866  0.05074702296915491  1.0000
  C   C18       1.0  0.2049450686988621  0.4871040858037929  0.5507398723074602  1.0000
  C   C19       1.0  0.8101221600782154  0.5344592468008357  0.13271599124590244  1.0000
  C   C20       1.0  0.18988682252582115  0.4655466429229306  0.6327130499860658  1.0000
  C   C21       1.0  0.7036816998478344  0.5620221842424442  0.17500131078246284  1.0000
  C   C22       1.0  0.2963111961717146  0.43798214517616424  0.6749951298254758  1.0000
  C   C23       1.0  0.5766785900386893  0.5658831171936003  0.1361035073223249  1.0000
  C   C24       1.0  0.4233210991583647  0.43411838160320565  0.6361021772989732  1.0000
  C   C25       1.0  0.34076619639385086  0.5735471360788507  0.14027693252225504  1.0000
  C   C26       1.0  0.6592288513069137  0.4264532567475285  0.6402770798078663  1.0000
  C   C27       1.0  0.2053405604508782  0.5697358447243843  0.18593834167430862  1.0000
  C   C28       1.0  0.7946604969986808  0.4302703553420386  0.6859427190551486  1.0000
  C   C29       1.0  0.2542837432839917  0.7889202109742824  0.3066198886407322  1.0000
  C   C30       1.0  0.7457130983526241  0.21108265034909118  0.8066207843751415  1.0000
  C   C31       1.0  0.2778420036441247  0.8083395812614427  0.3954522409404434  1.0000
  C   C32       1.0  0.7221558272549586  0.19165587712737422  0.8954555663509327  1.0000
  C   C33       1.0  0.10942564919642445  0.8039811022238011  0.2828452561417479  1.0000
  C   C34       1.0  0.8905707849978268  0.19602108542402163  0.7828475709128002  1.0000
  C   C35       1.0  0.3952112007983644  0.8983336901353027  0.2615354007226927  1.0000
  C   C36       1.0  0.604783225512115  0.10166440416089267  0.7615391137699987  1.0000
  S   S1        1.0  0.18486210966426603  0.5500056737119721  0.9105838975688771  1.0000
  S   S2        1.0  0.8151367380670607  0.44999401949736734  0.4105867441561984  1.0000
  S   S3        1.0  0.22544491485408713  0.5913679563532028  0.291439798548602  1.0000
  S   S4        1.0  0.7745514394698105  0.40863179539013567  0.7914407620298223  1.0000
  I   I1        1.0  0.3094241770514047  0.2332831882230124  0.8725890278399009  1.0000
  I   I2        1.0  0.6905763098910355  0.7667115062196216  0.3725822967481919  1.0000
  I   I3        1.0  0.6439135396978345  0.7211867715918602  0.8192923577530353  1.0000
  I   I4        1.0  0.3560857758588583  0.27881465210914064  0.3192921645400659  1.0000
  N   N1        1.0  0.43919563687283164  0.5482951059014738  0.014588608474269904  1.0000
  N   N2        1.0  0.5608102819966588  0.45170742570498834  0.5145896735652827  1.0000
  N   N3        1.0  0.463266313658984  0.5801122703744851  0.17851837000743845  1.0000
  N   N4        1.0  0.5367234245345713  0.4198875194227227  0.6785172473934368  1.0000
