data_image0
_chemical_formula_structural       Re4Ag4H16C16N8O16
_chemical_formula_sum              "Re4 Ag4 H16 C16 N8 O16"
_cell_length_a       7.103917390137533
_cell_length_b       7.527581185012856
_cell_length_c       15.615525672453433
_cell_angle_alpha    90.00020889262996
_cell_angle_beta     93.48430494243314
_cell_angle_gamma    89.99991678626466

_space_group_name_H-M_alt    "P 1"
_space_group_IT_number       1

loop_
  _space_group_symop_operation_xyz
  'x, y, z'

loop_
  _atom_site_type_symbol
  _atom_site_label
  _atom_site_symmetry_multiplicity
  _atom_site_fract_x
  _atom_site_fract_y
  _atom_site_fract_z
  _atom_site_occupancy
  Re  Re1       1.0  0.4812657813585872  0.8446957718645008  0.6232375496964337  1.0000
  Re  Re2       1.0  0.5187317067682287  0.3446994818948069  0.8767696471774471  1.0000
  Re  Re3       1.0  0.5187414997922914  0.15531263676178497  0.3767508375017741  1.0000
  Re  Re4       1.0  0.4812700999747008  0.6553036129731922  0.1232262981392793  1.0000
  Ag  Ag1       1.0  0.47776722872742283  0.6391081346868006  0.36576344076163286  1.0000
  Ag  Ag2       1.0  0.5222363469322958  0.1391072689596982  0.1342326943007919  1.0000
  Ag  Ag3       1.0  0.5222275963024643  0.36089363175006645  0.6342355447994947  1.0000
  Ag  Ag4       1.0  0.47775987443864665  0.8608971543697522  0.8657656832134181  1.0000
  H   H1        1.0  0.7844795291743835  0.45494077284134704  0.259155556052619  1.0000
  H   H2        1.0  0.21553479259169717  0.9549317173166403  0.24083559347297273  1.0000
  H   H3        1.0  0.21551806079336444  0.5450729496155444  0.7408409319385216  1.0000
  H   H4        1.0  0.7844699594090088  0.0450673922283968  0.7591661838912105  1.0000
  H   H5        1.0  0.140269213872827  0.45192830062383393  0.25940445630780573  1.0000
  H   H6        1.0  0.8597495088827642  0.9519289771200905  0.2405944752346016  1.0000
  H   H7        1.0  0.8597298972786191  0.5480681520286483  0.740597190287339  1.0000
  H   H8        1.0  0.14025387451336266  0.048072789329303596  0.759409191662492  1.0000
  H   H9        1.0  0.1717776783530098  0.7587103046207774  0.48179578544047535  1.0000
  H   H10       1.0  0.8282160783022761  0.2587253686023701  0.0182099286730804  1.0000
  H   H11       1.0  0.8282145204429981  0.24127286358136496  0.5182121050932906  1.0000
  H   H12       1.0  0.1717787883452786  0.7412644418102515  0.9817909791006514  1.0000
  H   H13       1.0  0.8168294804921459  0.7558908960586521  0.4831751209683119  1.0000
  H   H14       1.0  0.1831697265052767  0.255900201669796  0.0168217488975344  1.0000
  H   H15       1.0  0.1831681788401127  0.2441002427952128  0.5168245707083089  1.0000
  H   H16       1.0  0.8168195547668375  0.7440962509961861  0.9831815910780506  1.0000
  C   C1        1.0  0.8714249832981693  0.5215293655322881  0.3093665844336115  1.0000
  C   C2        1.0  0.1285857547400298  0.021525505588464  0.19062759842351082  1.0000
  C   C3        1.0  0.12857687892030611  0.47848037158567547  0.690631923851825  1.0000
  C   C4        1.0  0.8714162323115958  0.9784789177602562  0.8093766765248704  1.0000
  C   C5        1.0  0.0674195576928227  0.5201470083603468  0.3092470414876161  1.0000
  C   C6        1.0  0.932589882885786  0.0201500047802909  0.19075223233569014  1.0000
  C   C7        1.0  0.9325795395877918  0.47985077273759197  0.690753964367808  1.0000
  C   C8        1.0  0.067402329768953  0.9798504332480746  0.8092562989530947  1.0000
  C   C9        1.0  0.0855457600233009  0.6896574433222611  0.4323160041770038  1.0000
  C   C10       1.0  0.9144607506183321  0.18967012126022811  0.0676886090735707  1.0000
  C   C11       1.0  0.9144534204840156  0.3103297102069718  0.5676888461145496  1.0000
  C   C12       1.0  0.0855384437537765  0.8103250029593809  0.9323168819653489  1.0000
  C   C13       1.0  0.8898948524405911  0.6895878083688701  0.4328796383578037  1.0000
  C   C14       1.0  0.11010586487286392  0.1895976122557315  0.0671177958600566  1.0000
  C   C15       1.0  0.11010279302169584  0.3104033304824796  0.5671194125780091  1.0000
  C   C16       1.0  0.889890522944576  0.810396183520119  0.932888270535159  1.0000
  N   N1        1.0  0.7825874335421831  0.605615115327417  0.3714567307360568  1.0000
  N   N2        1.0  0.2174160608476825  0.10561595593123492  0.12853358255821232  1.0000
  N   N3        1.0  0.21741300459530782  0.3943919648929183  0.6285411041146745  1.0000
  N   N4        1.0  0.7825787919204076  0.8943884674066213  0.8714666844867267  1.0000
  N   N5        1.0  0.1745215153409561  0.6043628075837049  0.3706850392843181  1.0000
  N   N6        1.0  0.825489323006032  0.10437078152605038  0.12931889097115604  1.0000
  N   N7        1.0  0.8254790337683532  0.3956256743850943  0.6293179214776073  1.0000
  N   N8        1.0  0.1745098713652098  0.8956256711415376  0.8706866000688578  1.0000
  O   O1        1.0  0.24298508307015257  0.9071276716718585  0.6215633117817418  1.0000
  O   O2        1.0  0.7570150888019783  0.40713372126478475  0.8784414902263434  1.0000
  O   O3        1.0  0.7570234557143465  0.09289534985362739  0.37841805997126704  1.0000
  O   O4        1.0  0.24298116030371383  0.5928786727575711  0.1215581687760547  1.0000
  O   O5        1.0  0.627886536316403  0.0327522513312886  0.6231385190487302  1.0000
  O   O6        1.0  0.3721001174365527  0.5327480374334501  0.8768698253021727  1.0000
  O   O7        1.0  0.372120897408415  0.9672495150828125  0.3768569162929438  1.0000
  O   O8        1.0  0.6278960484605777  0.467247086750085  0.1231259892411387  1.0000
  O   O9        1.0  0.5183598766929549  0.7160351995742786  0.5320159565922609  1.0000
  O   O10       1.0  0.4816548261421759  0.2160542939000649  0.967997187591543  1.0000
  O   O11       1.0  0.4816631803464945  0.2839439832350266  0.4679849642661793  1.0000
  O   O12       1.0  0.518348474028116  0.7839567716700627  0.0320026348683271  1.0000
  O   O13       1.0  0.5407280216667374  0.7161089723491472  0.7154094241974465  1.0000
  O   O14       1.0  0.45927953293541895  0.21610273832573768  0.7845990714426423  1.0000
  O   O15       1.0  0.45926117636743424  0.28391537770924924  0.28459007135621317  1.0000
  O   O16       1.0  0.5407377445464762  0.7838870720455943  0.21539531124957287  1.0000
