data_image0
_chemical_formula_structural       Zn8H26C45I6O31
_chemical_formula_sum              "Zn8 H26 C45 I6 O31"
_cell_length_a       18.31820645976215
_cell_length_b       18.643665331059648
_cell_length_c       18.415678623980995
_cell_angle_alpha    91.02933410493578
_cell_angle_beta     119.43538737723837
_cell_angle_gamma    118.88900014896565

_space_group_name_H-M_alt    "P 1"
_space_group_IT_number       1

loop_
  _space_group_symop_operation_xyz
  'x, y, z'

loop_
  _atom_site_type_symbol
  _atom_site_label
  _atom_site_symmetry_multiplicity
  _atom_site_fract_x
  _atom_site_fract_y
  _atom_site_fract_z
  _atom_site_occupancy
  Zn  Zn1       1.0  0.40765278325883986  0.5438199477194204  0.45888455305192377  1.0000
  Zn  Zn2       1.0  0.5845133957859331  0.5482546344087782  0.4564232293412047  1.0000
  Zn  Zn3       1.0  0.41123986621543207  0.373696903872812  0.4550589279772338  1.0000
  Zn  Zn4       1.0  0.5834470467490152  0.544629413597072  0.6280808362426384  1.0000
  Zn  Zn5       1.0  0.5921430501362439  0.9616396922727972  0.04106159728586084  1.0000
  Zn  Zn6       1.0  0.5786801952716872  0.1264044649620786  0.03858510250724122  1.0000
  Zn  Zn7       1.0  0.4137221549837308  0.9514370426789753  0.03963970139524523  1.0000
  Zn  Zn8       1.0  0.41305680091770125  0.9548526166971385  0.8649327027185691  1.0000
  H   H1        1.0  0.6362315316857163  0.7267062572575327  0.8147531831003647  1.0000
  H   H2        1.0  0.3890576756078019  0.20342074784884548  0.5997155449682694  1.0000
  H   H3        1.0  0.5288509741678027  0.6370335778325042  0.8022201742513815  1.0000
  H   H4        1.0  0.09101942092421211  0.7801716898114465  0.6880313106186762  1.0000
  H   H5        1.0  0.08187079591506578  0.8147307289180432  0.8466933198676115  1.0000
  H   H6        1.0  0.9059681898277318  0.7219915418542157  0.6037213686155167  1.0000
  H   H7        1.0  0.37128537059680156  0.1989290742747656  0.27094247308018987  1.0000
  H   H8        1.0  0.5438300277331649  0.353649058821695  0.2702098573127002  1.0000
  H   H9        1.0  0.4019991748116141  0.8035317051418217  0.20385699704631582  1.0000
  H   H10       1.0  0.5795594724141255  0.8055864825838697  0.22105380812966055  1.0000
  H   H11       1.0  0.640216018321489  0.8194176745524973  0.9048599237221495  1.0000
  H   H12       1.0  0.3477050998994358  0.7455880235620782  0.6927775027393039  1.0000
  H   H13       1.0  0.6223552986216776  0.8165566654352646  0.7175235298913591  1.0000
  H   H14       1.0  0.6187605366150212  0.9033653528315996  0.8067683652188792  1.0000
  H   H15       1.0  0.9924470314281919  0.29162810097574277  0.3539526657288335  1.0000
  H   H16       1.0  0.862599644774889  0.6128843326580977  0.7931537544090261  1.0000
  H   H17       1.0  0.6130384946688708  0.26656047614880407  0.35496354930350554  1.0000
  H   H18       1.0  0.5438628678791987  0.7569751206205383  0.971039176564254  1.0000
  H   H19       1.0  0.2445292251989246  0.6104809504242186  0.7146898336116365  1.0000
  H   H20       1.0  0.5022402220962051  0.7882932054116124  0.6272165570517316  1.0000
  H   H21       1.0  0.4955301611985875  0.870024004354555  0.7180177640381231  1.0000
  H   H22       1.0  0.911649743115767  0.10470467041753302  0.20182735039028918  1.0000
  H   H23       1.0  0.9155584461612137  0.27154264516163806  0.1935764052847019  1.0000
  H   H24       1.0  0.09929864010897663  0.2074308505846645  0.276590849693484  1.0000
  H   H25       1.0  0.40258128124261117  0.0993298899914024  0.6789226994820936  1.0000
  H   H26       1.0  0.5353672683653913  0.25912274113258593  0.8449347512909497  1.0000
  C   C1        1.0  0.7719711890540353  0.626640935061438  0.6342171866406119  1.0000
  C   C2        1.0  0.11108902484580346  0.3118018197583369  0.338749111558954  1.0000
  C   C3        1.0  0.44935478323441913  0.16850459723631422  0.7169022582534409  1.0000
  C   C4        1.0  0.22431170775714557  0.3659759067233495  0.3858781651373632  1.0000
  C   C5        1.0  0.4929180967490652  0.19177555923933204  0.8048865085968444  1.0000
  C   C6        1.0  0.4553974105094839  0.2285677571720584  0.6678755059624351  1.0000
  C   C7        1.0  0.5316978176881122  0.31222584859099806  0.6925688337828291  1.0000
  C   C8        1.0  0.054535290635314496  0.7717878987290091  0.7226238031839003  1.0000
  C   C9        1.0  0.113981341673835  0.817953685630485  0.8093488700164642  1.0000
  C   C10       1.0  0.9444651463545811  0.7175025286607025  0.6697658907053707  1.0000
  C   C11       1.0  0.8831101773462252  0.6639150593031645  0.6930208694113417  1.0000
  C   C12       1.0  0.38578891353339634  0.6587402089433709  0.6685008006397338  1.0000
  C   C13       1.0  0.4290487915572712  0.17604852743053104  0.19994964783180083  1.0000
  C   C14       1.0  0.5121441110316026  0.18054444318929086  0.21620685065037984  1.0000
  C   C15       1.0  0.427947743422081  0.2306787779975537  0.2559951741953412  1.0000
  C   C16       1.0  0.4782864726094048  0.6248105675075167  0.3528603844493645  1.0000
  C   C17       1.0  0.4903756768142671  0.31816037523114465  0.287596244979113  1.0000
  C   C18       1.0  0.4581418754978018  0.7876798342191195  0.22604669903831362  1.0000
  C   C19       1.0  0.5191133919202927  0.8158257646747703  0.19771406289473958  1.0000
  C   C20       1.0  0.46495070220545653  0.7396338793754681  0.28775004721673975  1.0000
  C   C21       1.0  0.4659218605862563  0.6680816116332834  0.283838851295151  1.0000
  C   C22       1.0  0.4886171073977009  0.13102125141355  0.8554364286053725  1.0000
  C   C23       1.0  0.4968229616111943  0.6965925043833254  0.6991511489884701  1.0000
  C   C24       1.0  0.5091062934227184  0.8641516443645473  0.13462353276736397  1.0000
  C   C25       1.0  0.7733753620075988  0.1422462889328671  0.12744715554772773  1.0000
  C   C26       1.0  0.22610696199007654  0.8722184786993521  0.8611839493475626  1.0000
  C   C27       1.0  0.5076134910773363  0.1270272506793546  0.15009016149239338  1.0000
  C   C28       1.0  0.5156566180291834  0.3649650354692895  0.6331988769862777  1.0000
  C   C29       1.0  0.4975315313814051  0.8554844270222262  0.860642584544351  1.0000
  C   C30       1.0  0.4895986491597029  0.3712901768668927  0.3477211683378627  1.0000
  C   C31       1.0  0.5028194347941124  0.6422700624789641  0.6410895922314452  1.0000
  C   C32       1.0  0.5594847496024615  0.7020658016056274  0.7962755167304038  1.0000
  C   C33       1.0  0.5626094565347729  0.7602855564400813  0.8593247836638724  1.0000
  C   C34       1.0  0.49640549676593076  0.7928026307092041  0.8046183998654327  1.0000
  C   C35       1.0  0.5440114573521414  0.7902077049866421  0.6957950205059616  1.0000
  C   C36       1.0  0.061105199774580427  0.34470514079998793  0.3589774951937272  1.0000
  C   C37       1.0  0.9154235148933126  0.6356232810279467  0.77228066690531  1.0000
  C   C38       1.0  0.6119124768676161  0.23337854977319955  0.3032742595671822  1.0000
  C   C39       1.0  0.5404117485692836  0.7171333917974889  0.9225033859788425  1.0000
  C   C40       1.0  0.32321026785803764  0.6668265602328631  0.7661713569003651  1.0000
  C   C41       1.0  0.5419124135942824  0.846180996553258  0.7565674337773486  1.0000
  C   C42       1.0  0.38684094221236626  0.7162218113244238  0.731812932729383  1.0000
  C   C43       1.0  0.9470922129731036  0.17495029120905772  0.2206237397751493  1.0000
  C   C44       1.0  0.885588192466699  0.20285504248423075  0.18390713672784645  1.0000
  C   C45       1.0  0.056426735877209915  0.2311922126449844  0.27978678937417095  1.0000
  I   I1        1.0  0.6775064118863983  0.38019624870021573  0.8115537768013821  1.0000
  I   I2        1.0  0.28236393351898664  0.085984725299646  0.08352696446075204  1.0000
  I   I3        1.0  0.4774919615842992  0.7978431053109036  0.3974822973350953  1.0000
  I   I4        1.0  0.4459441626384121  0.6001788131544004  0.17555469073479193  1.0000
  I   I5        1.0  0.2847421998779824  0.6508777865482999  0.5332450153917706  1.0000
  I   I6        1.0  0.31688837115163443  0.5218081491188898  0.6677535419968378  1.0000
  O   O1        1.0  0.49640391590824623  0.5013443345342452  0.4985640193835294  1.0000
  O   O2        1.0  0.27111034511244037  0.8996337779457095  0.9451703197796775  1.0000
  O   O3        1.0  0.5520801634089169  0.16955018028939864  0.11536677761248632  1.0000
  O   O4        1.0  0.7284515589776462  0.614209359111804  0.6740730188015148  1.0000
  O   O5        1.0  0.4305935320978805  0.8717028262901324  0.8192643691754925  1.0000
  O   O6        1.0  0.46075309358268873  0.04585047456580331  0.13640042197643262  1.0000
  O   O7        1.0  0.5704326486356879  0.8916225011817646  0.9422708587130444  1.0000
  O   O8        1.0  0.7351753555027399  0.0608740328835822  0.10886289761078416  1.0000
  O   O9        1.0  0.2681684931159368  0.8863384625200724  0.8199003416967869  1.0000
  O   O10       1.0  0.5371351743844458  0.1677517359909899  0.9385274258750369  1.0000
  O   O11       1.0  0.43413343347305067  0.8712907866884552  0.10047762349987018  1.0000
  O   O12       1.0  0.4061355982378886  0.5890821264492985  0.362766890799378  1.0000
  O   O13       1.0  0.26842409048593663  0.44778758166128096  0.41142000617665536  1.0000
  O   O14       1.0  0.5594344587404978  0.6270417702402045  0.3937142121867653  1.0000
  O   O15       1.0  0.44789028348689897  0.3235836495282528  0.5504380255370334  1.0000
  O   O16       1.0  0.5531624913074469  0.4534050387272687  0.373267120422085  1.0000
  O   O17       1.0  0.5542177276884389  0.6109419961977806  0.6796157396082023  1.0000
  O   O18       1.0  0.42792012190432877  0.3313395014875127  0.3693691983301264  1.0000
  O   O19       1.0  0.45899462871697244  0.6353497070067533  0.5597085790196843  1.0000
  O   O20       1.0  0.09006031083146139  0.42053580052790823  0.38179837175073317  1.0000
  O   O21       1.0  0.9894964090124037  0.6318523812397246  0.8088253758155519  1.0000
  O   O22       1.0  0.6874844504319954  0.2377388825674558  0.31919950914338824  1.0000
  O   O23       1.0  0.5702703913933361  0.44671476874758304  0.6713134013277866  1.0000
  O   O24       1.0  0.5262423303071914  0.6463323803171833  0.924248546193752  1.0000
  O   O25       1.0  0.3526444563166607  0.689834635366104  0.8431206202056315  1.0000
  O   O26       1.0  0.7303455857931525  0.6108032466191986  0.5512160977213084  1.0000
  O   O27       1.0  0.26600613255190814  0.3249904296855064  0.3952816730612981  1.0000
  O   O28       1.0  0.4992160682052785  0.9987426916246491  0.9950277377869128  1.0000
  O   O29       1.0  0.4402102916674978  0.04993394120413801  0.815075991820521  1.0000
  O   O30       1.0  0.5780124722307394  0.8948492752533853  0.11975916463427455  1.0000
  O   O31       1.0  0.7251507854115642  0.1784379341727913  0.10333111265921957  1.0000
