data_image0
_chemical_formula_structural       Cd2H28C44S2N6O8
_chemical_formula_sum              "Cd2 H28 C44 S2 N6 O8"
_cell_length_a       7.728732448745226
_cell_length_b       9.855516169356104
_cell_length_c       12.621068969306307
_cell_angle_alpha    92.0832555938576
_cell_angle_beta     92.83822098804474
_cell_angle_gamma    99.29016886461466

_space_group_name_H-M_alt    "P 1"
_space_group_IT_number       1

loop_
  _space_group_symop_operation_xyz
  'x, y, z'

loop_
  _atom_site_type_symbol
  _atom_site_label
  _atom_site_symmetry_multiplicity
  _atom_site_fract_x
  _atom_site_fract_y
  _atom_site_fract_z
  _atom_site_occupancy
  Cd  Cd1       1.0  0.30768947482692977  0.14779551405482036  0.4901921502342789  1.0000
  Cd  Cd2       1.0  0.6923117704230324  0.8522061941432074  0.5098080775262731  1.0000
  H   H1        1.0  0.7569272478180836  0.31554930177565405  0.5455316696969349  1.0000
  H   H2        1.0  0.243071186526521  0.6844513688292012  0.45446766187242826  1.0000
  H   H3        1.0  0.6415096198070958  0.5952012351423406  0.2837531529310695  1.0000
  H   H4        1.0  0.3584920454435618  0.40479632913778835  0.7162446188881902  1.0000
  H   H5        1.0  0.8616253600182731  0.11148612636096542  0.3548965894688295  1.0000
  H   H6        1.0  0.1383732944333858  0.8885155824055886  0.6451035635979637  1.0000
  H   H7        1.0  0.6179222744086985  0.15805181032914112  0.2333443836357247  1.0000
  H   H8        1.0  0.38207594988838883  0.8419478401403141  0.7666557118393129  1.0000
  H   H9        1.0  0.6619266111312285  0.3438592506205396  0.10569906630149013  1.0000
  H   H10       1.0  0.3380716081360902  0.656140390835766  0.8943002364719919  1.0000
  H   H11       1.0  0.9500526085385772  0.4977319300671397  0.10020784351621613  1.0000
  H   H12       1.0  0.049945820776258566  0.5022687315245661  0.899790695351598  1.0000
  H   H13       1.0  0.4010159663936791  0.6450138335780053  0.24120604440145854  1.0000
  H   H14       1.0  0.5989837532905327  0.3549868187163057  0.7587917391116789  1.0000
  H   H15       1.0  0.20786049652046762  0.6251279134814994  0.15984172454505344  1.0000
  H   H16       1.0  0.7921394432707984  0.37487377697450347  0.8401568804655142  1.0000
  H   H17       1.0  0.24135655395401306  0.3388061754405598  0.053528401455693604  1.0000
  H   H18       1.0  0.7586427456351715  0.6611924365829296  0.9464709098687936  1.0000
  H   H19       1.0  0.604180893419681  0.7181176904225312  0.10522463639335201  1.0000
  H   H20       1.0  0.3958181810326735  0.28187987442612444  0.8947730607321491  1.0000
  H   H21       1.0  0.14554824402135583  0.15950883834582189  0.8032656961711879  1.0000
  H   H22       1.0  0.8544521610385517  0.8404887893105764  0.19673758721204854  1.0000
  H   H23       1.0  0.0474721556184221  0.1423188377350826  0.9901066861033245  1.0000
  H   H24       1.0  0.9525228427080564  0.857677743883528  0.009894833693408602  1.0000
  H   H25       1.0  0.7291991104998062  0.08832849528693738  0.020189369529113307  1.0000
  H   H26       1.0  0.27080017902983405  0.9116700987102675  0.979808356392269  1.0000
  H   H27       1.0  0.5105400870469127  0.0542519875107388  0.8661078663303814  1.0000
  H   H28       1.0  0.48945382592793163  0.9457456145275388  0.13389285221379774  1.0000
  C   C1        1.0  0.6989852106981546  0.36936278792298793  0.48294359610150656  1.0000
  C   C2        1.0  0.3010190352912545  0.6306347577623299  0.5170526650084143  1.0000
  C   C3        1.0  0.6335386185786831  0.5161995729537239  0.3413813942137764  1.0000
  C   C4        1.0  0.36646262164150306  0.48380212623115426  0.6586180408452265  1.0000
  C   C5        1.0  0.49476483482997213  0.41725073882791003  0.36565069558209023  1.0000
  C   C6        1.0  0.5052353250683552  0.5827519897897844  0.6343487309259077  1.0000
  C   C7        1.0  0.31637785744500496  0.3834898825594237  0.3194916719403055  1.0000
  C   C8        1.0  0.6836218672689757  0.6165107787480224  0.6805069042743883  1.0000
  C   C9        1.0  0.047090823206197285  0.274980679026342  0.29265504381083934  1.0000
  C   C10       1.0  0.9529091266446059  0.7250210294559452  0.7073451466028332  1.0000
  C   C11       1.0  0.8836569209803857  0.19052245651098332  0.2967411501604077  1.0000
  C   C12       1.0  0.11634044310189749  0.8094792615529727  0.7032597582610479  1.0000
  C   C13       1.0  0.7480828050757539  0.21823935619936208  0.2282799363499706  1.0000
  C   C14       1.0  0.25191584937590505  0.7817623525671848  0.7717202167168224  1.0000
  C   C15       1.0  0.7723995300343419  0.32583304096958443  0.15713330889222024  1.0000
  C   C16       1.0  0.227599124417317  0.6741686677969624  0.8428668441745658  1.0000
  C   C17       1.0  0.9330489739540725  0.4122555499606619  0.1531840605281687  1.0000
  C   C18       1.0  0.06695226626611374  0.5877461492242162  0.8468153745308344  1.0000
  C   C19       1.0  0.0681360353578953  0.385224849560565  0.22279313256429845  1.0000
  C   C20       1.0  0.9318626140639878  0.6147768501928467  0.7772062278009388  1.0000
  C   C21       1.0  0.31627212833830504  0.5716947433910419  0.18556151564981602  1.0000
  C   C22       1.0  0.6837263060062995  0.42830592721381333  0.8144378159195469  1.0000
  C   C23       1.0  0.4119551786073501  0.5328407568893638  0.09036083068042441  1.0000
  C   C24       1.0  0.5880456314582645  0.4671588839984153  0.9096385467868232  1.0000
  C   C25       1.0  0.3547547820431234  0.41003759610220675  0.030311801265170905  1.0000
  C   C26       1.0  0.6452462430997841  0.5899630739341221  0.9696876049979509  1.0000
  C   C27       1.0  0.5582364732079059  0.6222114447923204  0.05905603878705532  1.0000
  C   C28       1.0  0.4417630364287887  0.37778818736657627  0.940942508631757  1.0000
  C   C29       1.0  0.9549957800688844  0.12443721448308757  0.621458509016577  1.0000
  C   C30       1.0  0.04500418487123879  0.8755645210386334  0.3785440595017491  1.0000
  C   C31       1.0  0.8854753300308577  0.11609340685666329  0.7312745458367474  1.0000
  C   C32       1.0  0.11452722058346153  0.8839021348946831  0.26872637654383885  1.0000
  C   C33       1.0  0.0068194617204184954  0.13674433297371277  0.819273472108762  1.0000
  C   C34       1.0  0.9931796429105616  0.8632532859538101  0.1807289812260393  1.0000
  C   C35       1.0  0.9519567658744068  0.1273030704138733  0.9224999693001551  1.0000
  C   C36       1.0  0.04804556975695821  0.8726976263776224  0.0775018524144926  1.0000
  C   C37       1.0  0.772733545613413  0.09551449432957779  0.9394295027934306  1.0000
  C   C38       1.0  0.22726921504842323  0.9044820675571684  0.060570655681488  1.0000
  C   C39       1.0  0.6507032197298417  0.07621316585813528  0.8529976986303255  1.0000
  C   C40       1.0  0.3492973802882632  0.9237854548942366  0.14700244274258276  1.0000
  C   C41       1.0  0.7048323057718235  0.08703092414063462  0.7486262985693629  1.0000
  C   C42       1.0  0.29516677874007513  0.9129666587343055  0.2513729839592429  1.0000
  C   C43       1.0  0.5615381057690882  0.07445555791671411  0.6613336216983399  1.0000
  C   C44       1.0  0.4384650900770879  0.9255430712802808  0.3386673870698829  1.0000
  S   S1        1.0  0.8138702301988874  0.5054223514587051  0.42188024051157674  1.0000
  S   S2        1.0  0.186133175694799  0.49457729787368987  0.5781200043509784  1.0000
  N   N1        1.0  0.2037614365692093  0.2766665278062489  0.3511669332304024  1.0000
  N   N2        1.0  0.7962372128526739  0.7233351719471557  0.6488324271348418  1.0000
  N   N3        1.0  0.5351076834757722  0.33638342279754596  0.4473900357743262  1.0000
  N   N4        1.0  0.46489247139277984  0.6636192968069992  0.5526085980321228  1.0000
  N   N5        1.0  0.23901272532696546  0.4530811423604603  0.2424916421989849  1.0000
  N   N6        1.0  0.7609857039878634  0.5469195192312525  0.7575068966688292  1.0000
  O   O1        1.0  0.11218539955927302  0.18733864999946093  0.6162119770016902  1.0000
  O   O2        1.0  0.8878132547980614  0.8126568745783799  0.38378724793515334  1.0000
  O   O3        1.0  0.8564065669743716  0.0712606301109844  0.542350053575703  1.0000
  O   O4        1.0  0.14358648587999318  0.9287452237105074  0.45765240604485063  1.0000
  O   O5        1.0  0.504295183945608  0.9586160268879169  0.615569021143287  1.0000
  O   O6        1.0  0.495706106477961  0.0413795782396917  0.3844374128012761  1.0000
  O   O7        1.0  0.49782629550509233  0.183712081791704  0.644489369081356  1.0000
  O   O8        1.0  0.502175169757585  0.8162844803793091  0.35551075204667637  1.0000
