data_image0
_chemical_formula_structural       Ni2H36C38N6O12
_chemical_formula_sum              "Ni2 H36 C38 N6 O12"
_cell_length_a       9.674611887581213
_cell_length_b       10.10217963238913
_cell_length_c       10.69043238012613
_cell_angle_alpha    66.84937512188668
_cell_angle_beta     87.53748801521775
_cell_angle_gamma    87.40994426592765

_space_group_name_H-M_alt    "P 1"
_space_group_IT_number       1

loop_
  _space_group_symop_operation_xyz
  'x, y, z'

loop_
  _atom_site_type_symbol
  _atom_site_label
  _atom_site_symmetry_multiplicity
  _atom_site_fract_x
  _atom_site_fract_y
  _atom_site_fract_z
  _atom_site_occupancy
  Ni  Ni1       1.0  0.9999972629728834  0.999997999089132  0.4999986774638786  1.0000
  Ni  Ni2       1.0  1.6099670289940657e-06  0.4999988263267881  0.5000013826774392  1.0000
  H   H1        1.0  0.0696285469003044  0.5886887234318224  0.07194530991315416  1.0000
  H   H2        1.0  0.9303806909669207  0.4113021407254323  0.9280597213325947  1.0000
  H   H3        1.0  0.14864992797167534  0.6489467432711251  0.8290864550646121  1.0000
  H   H4        1.0  0.851356169869675  0.35104518114974326  0.1709183530960132  1.0000
  H   H5        1.0  0.5602639161513921  0.7059841825570531  0.932808169582316  1.0000
  H   H6        1.0  0.4397408593295751  0.2940153010145464  0.067192102327077  1.0000
  H   H7        1.0  0.47877157618743377  0.6526271614766659  0.17253499900505173  1.0000
  H   H8        1.0  0.5212362879827452  0.34737235170287317  0.8274641690607182  1.0000
  H   H9        1.0  0.511037931509513  0.7024588115144469  0.7043431500750187  1.0000
  H   H10       1.0  0.4889636611574275  0.2975417709441146  0.2956540802693013  1.0000
  H   H11       1.0  0.3345741008379761  0.7083165724559848  0.6565723312103415  1.0000
  H   H12       1.0  0.6654255914670557  0.29168071635783127  0.3434299289804059  1.0000
  H   H13       1.0  0.6141085630813876  0.8965930425099632  0.7002886003898537  1.0000
  H   H14       1.0  0.3858899694217754  0.10340748459175593  0.2997116127847121  1.0000
  H   H15       1.0  0.6138147482334659  0.16447105855263539  0.6464074426053656  1.0000
  H   H16       1.0  0.38617960137799656  0.8355315744830636  0.35359409381869267  1.0000
  H   H17       1.0  0.3883084787698792  0.3034328172827615  0.5889210768353124  1.0000
  H   H18       1.0  0.6116848022846355  0.6965687975502493  0.4110762043410573  1.0000
  H   H19       1.0  0.11035696772270848  0.30812014283811356  0.27163995483783043  1.0000
  H   H20       1.0  0.8896479532197363  0.6918771223670532  0.7283657894089899  1.0000
  H   H21       1.0  0.19266550549723152  0.3163570736183061  0.016116107140042885  1.0000
  H   H22       1.0  0.8073443275141231  0.6836477584556774  0.9838866511415604  1.0000
  H   H23       1.0  0.146231031676642  0.8826658566617595  0.289061671808483  1.0000
  H   H24       1.0  0.853754820907085  0.11733797611623231  0.7109277020345672  1.0000
  H   H25       1.0  0.24001706797287875  0.924434820900366  0.053005773787497004  1.0000
  H   H26       1.0  0.759977121914389  0.0755700433762172  0.946989350805822  1.0000
  H   H27       1.0  0.2706889182339012  0.10247995084616689  0.9341375870744743  1.0000
  H   H28       1.0  0.7293094231853202  0.8975249228672837  0.06585825787841774  1.0000
  H   H29       1.0  0.02262141791909761  0.15438070483036626  0.8935444619853926  1.0000
  H   H30       1.0  0.9773736950636333  0.8456273960153311  0.10644944551818013  1.0000
  H   H31       1.0  0.07334493831470469  0.994751586377781  0.8708764817232435  1.0000
  H   H32       1.0  0.9266491546134363  0.005256496015640302  0.1291184200570754  1.0000
  H   H33       1.0  0.09670056123682969  0.6997378692472864  0.5400745387172421  1.0000
  H   H34       1.0  0.9032940307952443  0.3002593273051345  0.4599326928572368  1.0000
  H   H35       1.0  0.21651369929383432  0.6175211324297865  0.4901894180685389  1.0000
  H   H36       1.0  0.7834823653097942  0.3824901792361288  0.5098051513319248  1.0000
  C   C1        1.0  0.21874653145837186  0.5970752776561953  0.27762702344300993  1.0000
  C   C2        1.0  0.7812581613261855  0.40292741115779057  0.7223739651466943  1.0000
  C   C3        1.0  0.2689244679149638  0.6193167209721934  0.13565376181619368  1.0000
  C   C4        1.0  0.7310805585351261  0.3806762748679374  0.8643507136924312  1.0000
  C   C5        1.0  0.1769914431369131  0.6146547278629484  0.03967716943303407  1.0000
  C   C6        1.0  0.8230176920569791  0.3853383160373981  0.960325207955229  1.0000
  C   C7        1.0  0.22106406921447072  0.6472619555628611  0.9051043078083936  1.0000
  C   C8        1.0  0.7789399143698006  0.3527320859476433  0.0949017140348545  1.0000
  C   C9        1.0  0.3588750246362977  0.6833972969131209  0.8654183844214104  1.0000
  C   C10       1.0  0.6411288648231519  0.3165978730922702  0.1345834920131566  1.0000
  C   C11       1.0  0.4521038726572754  0.6815710707490722  0.9629529917955538  1.0000
  C   C12       1.0  0.547899848529461  0.3184273817454013  0.03704396435945512  1.0000
  C   C13       1.0  0.40774547207963246  0.6511171600035228  0.09665069131926166  1.0000
  C   C14       1.0  0.5922645776612043  0.3488801717141357  0.9033519605304505  1.0000
  C   C15       1.0  0.4050178891340154  0.7391945078972597  0.7173409671995543  1.0000
  C   C16       1.0  0.5949828374883309  0.26080278649438776  0.28266123820775857  1.0000
  C   C17       1.0  0.5213403322162761  0.965654870267045  0.6711886322550668  1.0000
  C   C18       1.0  0.4786592403183931  0.03434670078625859  0.32881395718056444  1.0000
  C   C19       1.0  0.5203293736476837  0.11100437236063947  0.6417910682497663  1.0000
  C   C20       1.0  0.47966396445770704  0.8889971909745856  0.3582099708998497  1.0000
  C   C21       1.0  0.39412808411484684  0.18888649737561997  0.6085961548303587  1.0000
  C   C22       1.0  0.6058707164544684  0.8111054394982348  0.39140527884106296  1.0000
  C   C23       1.0  0.27354484132972356  0.12368933526263251  0.6001993154030529  1.0000
  C   C24       1.0  0.7264557826192828  0.8763101388720995  0.3998002361467671  1.0000
  C   C25       1.0  0.2762992870487225  0.9721326227677665  0.6266239533087443  1.0000
  C   C26       1.0  0.7237013140890552  0.027867915489615296  0.3733761502989523  1.0000
  C   C27       1.0  0.14271214418656095  0.2138580522222355  0.5699375392312761  1.0000
  C   C28       1.0  0.8572845136002413  0.7861360274901443  0.43006322913613815  1.0000
  C   C29       1.0  0.13087474633515936  0.22034444005887363  0.23828301547976594  1.0000
  C   C30       1.0  0.8691248490107457  0.7796560668717731  0.7617190218979886  1.0000
  C   C31       1.0  0.1723800679113268  0.22620330863964003  0.1113976095265272  1.0000
  C   C32       1.0  0.8276225277131812  0.7737993947675933  0.8886016096434304  1.0000
  C   C33       1.0  0.14868879903886523  0.9989848455837484  0.25251242426030995  1.0000
  C   C34       1.0  0.8513013362755758  0.0010167911391292027  0.7474822027864292  1.0000
  C   C35       1.0  0.19666916619106437  0.0352110869545825  0.011156142853273798  1.0000
  C   C36       1.0  0.8033291894908744  0.9647937738844233  0.9888406415929298  1.0000
  C   C37       1.0  0.0560785561768569  0.0409597360531464  0.9481041223645619  1.0000
  C   C38       1.0  0.9439206484526395  0.959050515349162  0.051890670121032684  1.0000
  N   N1        1.0  0.40491516492926394  0.8987680011560641  0.6650915520931022  1.0000
  N   N2        1.0  0.5950834417217905  0.10123037195146621  0.3349094359523335  1.0000
  N   N3        1.0  0.11544102374641341  0.07749926306949818  0.32501982287904246  1.0000
  N   N4        1.0  0.884551371286591  0.922498038197304  0.6749790628225015  1.0000
  N   N5        1.0  0.1841683167868382  0.0849993121241184  0.1224409297244762  1.0000
  N   N6        1.0  0.8158290131263044  0.9150044918888586  0.8775544179539666  1.0000
  O   O1        1.0  0.0989717633466896  0.544164221803527  0.3130247225892688  1.0000
  O   O2        1.0  0.9010364715629747  0.4558245214050558  0.6869783198308569  1.0000
  O   O3        1.0  0.2971578353191333  0.6357242162787884  0.34885894732582295  1.0000
  O   O4        1.0  0.7028401696002361  0.3642924400304679  0.6511373333038436  1.0000
  O   O5        1.0  0.17640806059714717  0.8987764889587948  0.6225215579566168  1.0000
  O   O6        1.0  0.823586622679855  0.1012164511030349  0.377483465386355  1.0000
  O   O7        1.0  0.034043643321354  0.17218713764515306  0.5319169123930934  1.0000
  O   O8        1.0  0.9659550004036535  0.8278101584652829  0.4680844630877701  1.0000
  O   O9        1.0  0.14736613996010559  0.6057865188556235  0.5674061859943579  1.0000
  O   O10       1.0  0.8526344155552155  0.39421614764705737  0.4325950217290853  1.0000
  O   O11       1.0  0.14428879769356942  0.3323874635251086  0.5832577169938773  1.0000
  O   O12       1.0  0.8557088573365873  0.6676076987622039  0.4167426091546674  1.0000
