data_image0
_chemical_formula_structural       Cu4H44C32S4N12
_chemical_formula_sum              "Cu4 H44 C32 S4 N12"
_cell_length_a       5.719286752233319
_cell_length_b       9.386699706385599
_cell_length_c       17.707469268117563
_cell_angle_alpha    92.66080382798914
_cell_angle_beta     89.999099012346
_cell_angle_gamma    90.00065961525206

_space_group_name_H-M_alt    "P 1"
_space_group_IT_number       1

loop_
  _space_group_symop_operation_xyz
  'x, y, z'

loop_
  _atom_site_type_symbol
  _atom_site_label
  _atom_site_symmetry_multiplicity
  _atom_site_fract_x
  _atom_site_fract_y
  _atom_site_fract_z
  _atom_site_occupancy
  Cu  Cu1       1.0  0.6251707913284649  0.3707315977615693  0.9595253377425337  1.0000
  Cu  Cu2       1.0  0.12520939445895607  0.12928198533641932  0.5404763064868943  1.0000
  Cu  Cu3       1.0  0.37481773517016137  0.6292656571784432  0.04047525966407049  1.0000
  Cu  Cu4       1.0  0.8748245923982907  0.8707291335239234  0.4595240634708162  1.0000
  H   H1        1.0  0.47443602107627203  0.8577149009455384  0.7764518822463486  1.0000
  H   H2        1.0  0.9744276324880515  0.6423005491849307  0.7235453779209209  1.0000
  H   H3        1.0  0.5255577507395373  0.1422802237828193  0.2235514869740314  1.0000
  H   H4        1.0  0.025562642638142598  0.3577073684321874  0.27645322003582606  1.0000
  H   H5        1.0  0.1815735773385754  0.8870084787115571  0.7488802388603375  1.0000
  H   H6        1.0  0.6815649420314928  0.6130019585730507  0.7511171832635952  1.0000
  H   H7        1.0  0.8184219428881219  0.11298344766002802  0.2511241819871869  1.0000
  H   H8        1.0  0.31842708159773286  0.3870048909151791  0.24887969449425643  1.0000
  H   H9        1.0  0.24578321607511805  0.8345155585465773  0.8423637628249238  1.0000
  H   H10       1.0  0.7457891502923457  0.6654888777522386  0.657633768067157  1.0000
  H   H11       1.0  0.7542140526369677  0.1654795678400731  0.15764130062790824  1.0000
  H   H12       1.0  0.2542081186484566  0.3345137080015165  0.342365264849242  1.0000
  H   H13       1.0  0.8356468724254069  0.09073731662957128  0.8973127508570116  1.0000
  H   H14       1.0  0.3356686686680064  0.40928076394808943  0.602683469193856  1.0000
  H   H15       1.0  0.16433640849083275  0.9092599448840983  0.10269462352438548  1.0000
  H   H16       1.0  0.6643303488815349  0.5907335520679238  0.3973147197206117  1.0000
  H   H17       1.0  0.6792935562103252  0.9284144554799881  0.8795263600062738  1.0000
  H   H18       1.0  0.17931467804043416  0.5715991661496886  0.6204700210773664  1.0000
  H   H19       1.0  0.3206984670680058  0.0715796049527597  0.1204792422515268  1.0000
  H   H20       1.0  0.820682591048154  0.4284130157889334  0.37952698643909594  1.0000
  H   H21       1.0  0.0259224011821857  0.162110395037999  0.7640357265514126  1.0000
  H   H22       1.0  0.5259207906043386  0.3378940352838455  0.7359593972234819  1.0000
  H   H23       1.0  0.9740696221726708  0.8378825956129673  0.23596646127095508  1.0000
  H   H24       1.0  0.4740817237690179  0.6621064158650043  0.26403788953167856  1.0000
  H   H25       1.0  0.20501288919865596  0.49459599942149884  0.8952849249035849  1.0000
  H   H26       1.0  0.7050235683983317  0.0054116754516329  0.6047128018738164  1.0000
  H   H27       1.0  0.7949668949399039  0.5053969884458168  0.10471443921300509  1.0000
  H   H28       1.0  0.29499817905157494  0.9945898460876563  0.39528846401869083  1.0000
  H   H29       1.0  0.985567624057836  0.43816360174672303  0.8296865052590476  1.0000
  H   H30       1.0  0.48558075862779754  0.061845814200360394  0.6703149924682704  1.0000
  H   H31       1.0  0.014417405522109997  0.5618251174437108  0.1703099312941987  1.0000
  H   H32       1.0  0.5144357434328128  0.9381578402963624  0.3296863253448521  1.0000
  H   H33       1.0  0.2611115910599934  0.4973989684611411  0.7967166476011442  1.0000
  H   H34       1.0  0.7611276687536873  0.0026111860022198004  0.7032803040291142  1.0000
  H   H35       1.0  0.7388786838827811  0.5025940199877965  0.2032832812377947  1.0000
  H   H36       1.0  0.23889407874186466  0.9973967350072217  0.296721682335324  1.0000
  H   H37       1.0  0.7538951570279904  0.9517071407944541  0.012966749458776397  1.0000
  H   H38       1.0  0.25389708356484414  0.5483050269354024  0.4870284975742507  1.0000
  H   H39       1.0  0.24608812391149829  0.048287986098074505  0.9870388787736388  1.0000
  H   H40       1.0  0.7461001854448455  0.4517018236673707  0.5129695096650977  1.0000
  H   H41       1.0  0.6545701764216574  0.1302310654357015  0.0199612224943024  1.0000
  H   H42       1.0  0.1545858892071976  0.3697754504989915  0.4800382397767393  1.0000
  H   H43       1.0  0.34541485298760227  0.8697640614622343  0.9800444057340271  1.0000
  H   H44       1.0  0.8454113797880751  0.6302314006529385  0.5199603322094787  1.0000
  C   C1        1.0  0.11023499952869999  0.34860994903250747  0.029998207495374598  1.0000
  C   C2        1.0  0.6102893850348963  0.15138668604881636  0.4699927571887983  1.0000
  C   C3        1.0  0.8897465332527046  0.6513830322503366  0.9699943796546009  1.0000
  C   C4        1.0  0.3897428533678493  0.8486137635445273  0.5300028352562407  1.0000
  C   C5        1.0  0.31903510746972324  0.05423680938446302  0.8202058926916251  1.0000
  C   C6        1.0  0.8190490170183438  0.44577690571977496  0.6797936897124826  1.0000
  C   C7        1.0  0.6809621612511805  0.9457561829302108  0.17979798935910907  1.0000
  C   C8        1.0  0.1809587428832842  0.5542331427284849  0.3202027011242237  1.0000
  C   C9        1.0  0.2613706235395412  0.2886433719646391  0.8416768132067601  1.0000
  C   C10       1.0  0.7613844347746337  0.2113657203535979  0.6583229349978693  1.0000
  C   C11       1.0  0.73862314833395  0.7113517505670899  0.15832429702610534  1.0000
  C   C12       1.0  0.23862682197320587  0.7886389973187917  0.3416750203004284  1.0000
  C   C13       1.0  0.3049829958879258  0.9002288095338998  0.7961332867587743  1.0000
  C   C14       1.0  0.8049852526283771  0.5997813260759058  0.7038646618642089  1.0000
  C   C15       1.0  0.695014272861826  0.0997641816824526  0.2038694657982063  1.0000
  C   C16       1.0  0.19501201637690704  0.4002265915628556  0.2961339360761883  1.0000
  C   C17       1.0  0.6693228910836027  0.0356718487243057  0.906832331946923  1.0000
  C   C18       1.0  0.1693462758821767  0.4643409383152318  0.5931662561912531  1.0000
  C   C19       1.0  0.33066563529964543  0.9643254106089643  0.09317278343470288  1.0000
  C   C20       1.0  0.8306562385280073  0.5356680463757473  0.4068329324379292  1.0000
  C   C21       1.0  0.17435082512364627  0.16675488629662283  0.8020013552809288  1.0000
  C   C22       1.0  0.6743598037191418  0.3332525982796425  0.6979959501176154  1.0000
  C   C23       1.0  0.825641198182346  0.8332359724790024  0.19800191012684815  1.0000
  C   C24       1.0  0.3256479561524444  0.6667542507081237  0.3020003628565746  1.0000
  C   C25       1.0  0.17399760457207947  0.4376461788342211  0.8408502536085007  1.0000
  C   C26       1.0  0.6740118878390291  0.06236023873329799  0.6591487217156241  1.0000
  C   C27       1.0  0.8259926704051422  0.5623489420392217  0.15914916239191254  1.0000
  C   C28       1.0  0.32600636268575295  0.9376412822460122  0.34085197943819157  1.0000
  C   C29       1.0  0.622930229593706  0.0256012339008933  0.9914103376475224  1.0000
  C   C30       1.0  0.1229424011402145  0.47440806710634575  0.5085889543154991  1.0000
  C   C31       1.0  0.37705130289043604  0.9743938924370642  0.008594725842101499  1.0000
  C   C32       1.0  0.8770583648290468  0.5256009164809113  0.49140910482401506  1.0000
  S   S1        1.0  0.3652486383146112  0.3824253091169751  0.0697611621451273  1.0000
  S   S2        1.0  0.8653008813803782  0.1175654474073795  0.4302374644689947  1.0000
  S   S3        1.0  0.6347363912921438  0.6175708771287629  0.9302371503279687  1.0000
  S   S4        1.0  0.1347366023751775  0.882438204957637  0.5697615943075646  1.0000
  N   N1        1.0  0.9257533260782081  0.32985295967282  0.0010150770844816978  1.0000
  N   N2        1.0  0.4257833081781897  0.17015523169109767  0.4989802934705097  1.0000
  N   N3        1.0  0.07424918823067367  0.6701421595910231  0.9989826446466877  1.0000
  N   N4        1.0  0.5742471817715823  0.8298516184653053  0.5010171489442925  1.0000
  N   N5        1.0  0.4514960953508904  0.2537172069510376  0.882115747674554  1.0000
  N   N6        1.0  0.95152491125679  0.24629519491843865  0.6178831634496262  1.0000
  N   N7        1.0  0.5485011734677485  0.7462800491143398  0.11788597920536857  1.0000
  N   N8        1.0  0.04849508787435039  0.7537116552055065  0.38211427898969663  1.0000
  N   N9        1.0  0.48536987921472263  0.11067822969899051  0.867939725951281  1.0000
  N   N10       1.0  0.9853903431671966  0.389331185596248  0.632062337430355  1.0000
  N   N11       1.0  0.5146221441513318  0.8893190279976294  0.1320636951815288  1.0000
  N   N12       1.0  0.0146174166266846  0.6106735326144772  0.3679361826229907  1.0000
