data_image0
_chemical_formula_structural       Ag2H56C40N10O6
_chemical_formula_sum              "Ag2 H56 C40 N10 O6"
_cell_length_a       9.305650478
_cell_length_b       10.105159970453428
_cell_length_c       11.3678
_cell_angle_alpha    90.0
_cell_angle_beta     90.0
_cell_angle_gamma    94.53805615276417

_space_group_name_H-M_alt    "P 1"
_space_group_IT_number       1

loop_
  _space_group_symop_operation_xyz
  'x, y, z'

loop_
  _atom_site_type_symbol
  _atom_site_label
  _atom_site_symmetry_multiplicity
  _atom_site_fract_x
  _atom_site_fract_y
  _atom_site_fract_z
  _atom_site_occupancy
  Ag  Ag1       1.0  0.2560520897358813  0.1546168705503064  0.7198868734495677  1.0000
  Ag  Ag2       1.0  0.7439459169859717  0.8453821066651487  0.21988863280493828  1.0000
  H   H1        1.0  0.9708734496695117  0.2928322596830313  0.6668150389697232  1.0000
  H   H2        1.0  0.0291288555159568  0.7071667175324237  0.1668159186474085  1.0000
  H   H3        1.0  0.7795929543118305  0.3990199890303003  0.600223438132268  1.0000
  H   H4        1.0  0.2204104254895469  0.6009789881851546  0.1002243178099533  1.0000
  H   H5        1.0  0.7366072494895732  0.317885170137906  0.4095365857949673  1.0000
  H   H6        1.0  0.2633952262805579  0.6821157924886876  0.9095365857949673  1.0000
  H   H7        1.0  0.8507592288782746  0.4445821965489145  0.3419597459490831  1.0000
  H   H8        1.0  0.1492441509230957  0.5554167806665333  0.8419606256267683  1.0000
  H   H9        1.0  0.6563608618117911  0.5726154046563394  0.3151770791182145  1.0000
  H   H10       1.0  0.3436414433736772  0.4273835725591155  0.8151779587958998  1.0000
  H   H11       1.0  0.5388347288117785  0.4529616242601975  0.3877443304773109  1.0000
  H   H12       1.0  0.4611675763736898  0.5470373529552504  0.8877443304773109  1.0000
  H   H13       1.0  0.6202975913398561  0.7029387845123551  0.48534984781576174  1.0000
  H   H14       1.0  0.37970471384561216  0.2970601927030927  0.985349847815762  1.0000
  H   H15       1.0  0.5711299845670865  0.559496800556758  0.5727229543095405  1.0000
  H   H16       1.0  0.4288723206183818  0.44050217665869695  0.0727238339872258  1.0000
  H   H17       1.0  0.9244090373047698  0.6472122646686813  0.6965622196027397  1.0000
  H   H18       1.0  0.0755930972960428  0.3527847271356279  0.1965622196027397  1.0000
  H   H19       1.0  0.7428595620466892  0.5885205332892198  0.7301421559140735  1.0000
  H   H20       1.0  0.2571425725541232  0.41147645851509657  0.2301421559140735  1.0000
  H   H21       1.0  0.7831069784540149  0.7525393182872833  0.6727071201111912  1.0000
  H   H22       1.0  0.21689524143912564  0.24745866622259882  0.1727062404335058  1.0000
  H   H23       1.0  0.0569813718074172  0.6072906101953777  0.416398951424199  1.0000
  H   H24       1.0  0.943023253194518  0.3927103524312088  0.9163980717465137  1.0000
  H   H25       1.0  0.3194037763712032  0.5737599941778555  0.43457925016274157  1.0000
  H   H26       1.0  0.680599688722495  0.42623997574316513  0.9345766111296854  1.0000
  H   H27       1.0  0.3950907267779087  0.3926120745798443  0.5691277116064697  1.0000
  H   H28       1.0  0.6049104184993297  0.6073859099300378  0.0691268319287843  1.0000
  H   H29       1.0  0.9627424284361155  0.172694038969027  0.8606722496877167  1.0000
  H   H30       1.0  0.037253855515579894  0.8273099017742709  0.360670490332339  1.0000
  H   H31       1.0  0.7724095478721864  0.1791962604485775  0.982633403121099  1.0000
  H   H32       1.0  0.22758523500195346  0.8208027167668775  0.4826325234434136  1.0000
  H   H33       1.0  0.8290787336125405  0.2990833266535233  0.1616064673903495  1.0000
  H   H34       1.0  0.17091918781697757  0.7009146578563588  0.6616047080349787  1.0000
  H   H35       1.0  0.8550501642570651  0.1524865243983768  0.2418137194531909  1.0000
  H   H36       1.0  0.1449475865877972  0.8475094747003666  0.7418137194531907  1.0000
  H   H37       1.0  0.6099718375698799  0.1383742220238275  0.2907721810728532  1.0000
  H   H38       1.0  0.3900262544443009  0.8616257478971932  0.7907704217174825  1.0000
  H   H39       1.0  0.5745795112675935  0.2671261489634915  0.1922817079821968  1.0000
  H   H40       1.0  0.42541974065481714  0.7328748136630949  0.6922799486268261  1.0000
  H   H41       1.0  0.485910824687906  0.9984910574555386  0.1455848976934817  1.0000
  H   H42       1.0  0.5140851180944708  0.0015089124654821  0.645583138338111  1.0000
  H   H43       1.0  0.5216416124337968  0.12170173198580869  0.034140290997378  1.0000
  H   H44       1.0  0.478355404964482  0.878298237935212  0.5341394113196927  1.0000
  H   H45       1.0  0.5831394493906926  0.8506742200556019  0.9748183465578178  1.0000
  H   H46       1.0  0.4168584720388324  0.1493237644542802  0.4748174668801326  1.0000
  H   H47       1.0  0.7656749794222648  0.8873854647174753  0.9311828146167257  1.0000
  H   H48       1.0  0.2343241019154902  0.11261351249797262  0.4311810552613551  1.0000
  H   H49       1.0  0.632045687508743  0.9976154911433284  0.8898432414363384  1.0000
  H   H50       1.0  0.36795231921311006  0.0023834860721195  0.3898423617586531  1.0000
  H   H51       1.0  0.9850803223133157  0.9709960912999449  0.1921638311722589  1.0000
  H   H52       1.0  0.014917513823874599  0.029000900504364296  0.692166470205315  1.0000
  H   H53       1.0  0.22917823790877628  0.9054070416243077  0.1327715125178131  1.0000
  H   H54       1.0  0.7708223445065342  0.0945968991189901  0.6327732718731838  1.0000
  H   H55       1.0  0.3315664513695609  0.9852523359820609  0.939388448072627  1.0000
  H   H56       1.0  0.6684324082755921  0.0147565682890871  0.4393902074279977  1.0000
  C   C1        1.0  0.0462884724988157  0.3554630467618622  0.613396611481555  1.0000
  C   C2        1.0  0.9537149073025546  0.6445359304535856  0.1133974911592404  1.0000
  C   C3        1.0  0.9934786795944746  0.4513703172324526  0.5403191470645154  1.0000
  C   C4        1.0  0.006523625590993701  0.5486286599829953  0.0403200267422008  1.0000
  C   C5        1.0  0.8338705338218446  0.46404319653137804  0.5324363553194118  1.0000
  C   C6        1.0  0.1661329312718536  0.5359567733896426  0.0324363553194118  1.0000
  C   C7        1.0  0.7696415681862306  0.4244421859569912  0.4112616337373964  1.0000
  C   C8        1.0  0.23036073699923781  0.5755567912584638  0.9112616337373963  1.0000
  C   C9        1.0  0.6424654629877792  0.5123105267266013  0.3951987191892883  1.0000
  C   C10       1.0  0.3575349488428685  0.48769142860555803  0.8951978395116029  1.0000
  C   C11       1.0  0.6476668973965969  0.6015160418981935  0.5046359014057273  1.0000
  C   C12       1.0  0.35233549308119905  0.3984839280228272  0.0046359014057273  1.0000
  C   C13       1.0  0.8120172404263997  0.6494150783271735  0.6675601259698425  1.0000
  C   C14       1.0  0.1879848941744129  0.3505819134771357  0.1675601259698425  1.0000
  C   C15       1.0  0.0936570538557007  0.5307222369222089  0.4742008128221826  1.0000
  C   C16       1.0  0.9063464112379975  0.4692777329988118  0.9741999331444972  1.0000
  C   C17       1.0  0.2397307877926025  0.5117625532522965  0.4842247400552466  1.0000
  C   C18       1.0  0.760273666624677  0.48823642396315853  0.9842247400552465  1.0000
  C   C19       1.0  0.282292837120572  0.41242647774500796  0.5586085258361351  1.0000
  C   C20       1.0  0.7177093827725685  0.5875715067648741  0.0586085258361351  1.0000
  C   C21       1.0  0.0200572480912626  0.1143864846449176  0.9235938352187745  1.0000
  C   C22       1.0  0.9799401957686625  0.8856184488039531  0.42359295554108906  1.0000
  C   C23       1.0  0.9541900324135355  0.0767559946257848  0.0301315997818392  1.0000
  C   C24       1.0  0.045806080953496996  0.9232459607063747  0.5301324794595246  1.0000
  C   C25       1.0  0.8059764656642797  0.11792547999981909  0.0569872798606568  1.0000
  C   C26       1.0  0.194019477118097  0.8820744899212016  0.5569872798606568  1.0000
  C   C27       1.0  0.7906849239182919  0.1945355469068986  0.1721529231689516  1.0000
  C   C28       1.0  0.20931299751123328  0.8054624376029834  0.6721520434912662  1.0000
  C   C29       1.0  0.627788737398042  0.1744550986491333  0.2005093333802463  1.0000
  C   C30       1.0  0.3722105145243759  0.8255458639774531  0.700508453702561  1.0000
  C   C31       1.0  0.5675793302663834  0.0716604369380676  0.11016995372895619  1.0000
  C   C32       1.0  0.4324187617477975  0.9283395329829531  0.6101690740512709  1.0000
  C   C33       1.0  0.667124340529199  0.9312263207787623  0.9596192754974594  1.0000
  C   C34       1.0  0.33287366619265407  0.0687726564366926  0.45961751614208884  1.0000
  C   C35       1.0  0.031927190467378394  0.0020052652501832  0.1075511532574467  1.0000
  C   C36       1.0  0.9680699122232355  0.9979956973764104  0.6075529126128174  1.0000
  C   C37       1.0  0.1680831908163114  0.9665438068211999  0.0754895406323115  1.0000
  C   C38       1.0  0.8319151570748602  0.0334591412165324  0.5754895406323115  1.0000
  C   C39       1.0  0.22471235001665232  0.0091735921667961  0.9674053026970881  1.0000
  C   C40       1.0  0.7752862537515098  0.9908323339876404  0.46740706205246596  1.0000
  N   N1        1.0  0.18712561061600036  0.3347274128283004  0.6222303348053302  1.0000
  N   N2        1.0  0.812876523984812  0.6652695789760159  0.12223121448301551  1.0000
  N   N3        1.0  0.7962027831378932  0.6019200730649388  0.5472219778673093  1.0000
  N   N4        1.0  0.2037994367552471  0.3980779114449433  0.0472219778673093  1.0000
  N   N5        1.0  0.15243851412182607  0.0823975403766681  0.8921523953623379  1.0000
  N   N6        1.0  0.84755802570686  0.9176093784833413  0.3921532750400232  1.0000
  N   N7        1.0  0.6948021285767609  0.0040720782456702  0.07030032196203  1.0000
  N   N8        1.0  0.3051948888215179  0.9959278916753576  0.5702994422843446  1.0000
  N   N9        1.0  0.5961839241493364  0.2311465283062688  0.7463686905117939  1.0000
  N   N10       1.0  0.4038163170966484  0.7688534416147519  0.2463686905117939  1.0000
  O   O1        1.0  0.7253397746959748  0.2532084168805468  0.7809954432695889  1.0000
  O   O2        1.0  0.2746604665500172  0.7467915530404738  0.2809954432695889  1.0000
  O   O3        1.0  0.499297104068745  0.1876024912102352  0.8196000985238996  1.0000
  O   O4        1.0  0.500703051884912  0.8123964860052197  0.319600978201585  1.0000
  O   O5        1.0  0.5629025398913967  0.24995134990735582  0.639962877601647  1.0000
  O   O6        1.0  0.4370977013545954  0.7500486200136649  0.1399628776016471  1.0000
