data_image0
_chemical_formula_structural       Zn8H60C66O26
_chemical_formula_sum              "Zn8 H60 C66 O26"
_cell_length_a       16.108657689272505
_cell_length_b       16.244682716009333
_cell_length_c       16.294283213133657
_cell_angle_alpha    118.33155558584113
_cell_angle_beta     118.57712045757077
_cell_angle_gamma    90.65485807833107

_space_group_name_H-M_alt    "P 1"
_space_group_IT_number       1

loop_
  _space_group_symop_operation_xyz
  'x, y, z'

loop_
  _atom_site_type_symbol
  _atom_site_label
  _atom_site_symmetry_multiplicity
  _atom_site_fract_x
  _atom_site_fract_y
  _atom_site_fract_z
  _atom_site_occupancy
  Zn  Zn1       1.0  0.06241954194575778  0.010350700490434392  0.11760872716377688  1.0000
  Zn  Zn2       1.0  0.006312462198522396  0.18294509190075567  0.08764994648333159  1.0000
  Zn  Zn3       1.0  0.8538964705307419  0.9698952657574723  0.903343770567943  1.0000
  Zn  Zn4       1.0  0.061802274683991146  0.023528227469874544  0.9268752834336805  1.0000
  Zn  Zn5       1.0  0.4707576778969055  0.6125636263735715  0.9200334016209836  1.0000
  Zn  Zn6       1.0  0.42378396281245756  0.4065582747072228  0.8962722183005168  1.0000
  Zn  Zn7       1.0  0.4559136609598085  0.610520264928752  0.10917082994202328  1.0000
  Zn  Zn8       1.0  0.6350619689466298  0.5615046691536989  0.08198630258363689  1.0000
  H   H1        1.0  0.04343432255077322  0.23323506224724613  0.4046783329701639  1.0000
  H   H2        1.0  0.08437722266350528  0.3340020714320389  0.40127404147892065  1.0000
  H   H3        1.0  0.25869362500671395  0.3145046861231151  0.4861715148890083  1.0000
  H   H4        1.0  0.20111029775473102  0.44516740508463937  0.5834433941550969  1.0000
  H   H5        1.0  0.1607431519462351  0.3725241251487147  0.6185065724595232  1.0000
  H   H6        1.0  0.13161020589061673  0.22213584729494326  0.5849601511635498  1.0000
  H   H7        1.0  0.14966578682724216  0.0757459656113538  0.5944711691246382  1.0000
  H   H8        1.0  0.24487824328732435  0.9753893105363788  0.5260255191171977  1.0000
  H   H9        1.0  0.3223728061225303  0.02429768238807378  0.44876203514316154  1.0000
  H   H10       1.0  0.30652422751295916  0.17285057627358205  0.4420760326571837  1.0000
  H   H11       1.0  0.9187035901708142  0.6879414213403194  0.9415821467099617  1.0000
  H   H12       1.0  0.8057888784737129  0.6831681638543114  0.8336295118910895  1.0000
  H   H13       1.0  0.7601840933190189  0.7646437834760251  0.9797049876823394  1.0000
  H   H14       1.0  0.6781712769647043  0.5963825999584954  0.8152261923711704  1.0000
  H   H15       1.0  0.763486746619023  0.5514980303926436  0.8908280328596304  1.0000
  H   H16       1.0  0.8899159033704863  0.5941069505065499  0.051071633486337496  1.0000
  H   H17       1.0  0.010881572797451593  0.6436282393186019  0.24408280905347365  1.0000
  H   H18       1.0  0.07018480477277216  0.8184754078642841  0.4016621430573223  1.0000
  H   H19       1.0  0.004906259364965081  0.9423346298941694  0.3620574140592793  1.0000
  H   H20       1.0  0.8792804795072583  0.8916257005793115  0.1681810822284504  1.0000
  H   H21       1.0  0.3811357084856368  0.041551434933673186  0.2274761093674229  1.0000
  H   H22       1.0  0.3684082881652913  0.018752780084959394  0.10223950178951208  1.0000
  H   H23       1.0  0.28004713787643704  0.8404293175187973  0.006826097757929999  1.0000
  H   H24       1.0  0.4567798361756202  0.9112954325514835  0.08474043547620617  1.0000
  H   H25       1.0  0.49232881090623687  0.9268992087723334  0.21415499695919485  1.0000
  H   H26       1.0  0.44045121705921264  0.9065429040986076  0.30388061887769163  1.0000
  H   H27       1.0  0.37591746946436183  0.8601659150528818  0.39034179706593614  1.0000
  H   H28       1.0  0.19358960084089455  0.7836786862791457  0.29119635301738356  1.0000
  H   H29       1.0  0.0790585168833999  0.7469545370425836  0.10070042014017129  1.0000
  H   H30       1.0  0.14412845067026578  0.7893539545740893  0.010541932791312497  1.0000
  H   H31       1.0  0.7434903566904083  0.1828188051025208  0.1263664039557071  1.0000
  H   H32       1.0  0.6486445640118319  0.1064665968375706  0.9805566498762558  1.0000
  H   H33       1.0  0.6906921620587381  0.23868628507983655  0.956283041556297  1.0000
  H   H34       1.0  0.5585876674543755  0.21467966037547373  0.9915469780442406  1.0000
  H   H35       1.0  0.6424463317115823  0.3099485783955985  0.13480954047695798  1.0000
  H   H36       1.0  0.800751266930007  0.3775581568080497  0.2683893449266534  1.0000
  H   H37       1.0  0.9667414119339668  0.5015981840803647  0.40816871394977733  1.0000
  H   H38       1.0  0.07208304660482413  0.5354712558689131  0.3478848399951247  1.0000
  H   H39       1.0  0.007175873400193208  0.446356678124701  0.1457727433084202  1.0000
  H   H40       1.0  0.839257462761573  0.3240541592705172  0.0051766227104793  1.0000
  H   H41       1.0  0.008713550861123935  0.32578617381286523  0.9157342600035958  1.0000
  H   H42       1.0  0.03411297488520396  0.2309490313877305  0.8230328874917417  1.0000
  H   H43       1.0  0.21326217255914054  0.2983103638409048  0.9754718684127893  1.0000
  H   H44       1.0  0.133452035763156  0.33903097129884696  0.8292969407492804  1.0000
  H   H45       1.0  0.13503806940840227  0.453133640353009  0.9296315991712587  1.0000
  H   H46       1.0  0.1264666381813058  0.5223792006396337  0.0710263924046899  1.0000
  H   H47       1.0  0.17722823536669094  0.6330179785119512  0.2654708793251572  1.0000
  H   H48       1.0  0.28175124079494646  0.5961638161852391  0.40851353789688  1.0000
  H   H49       1.0  0.3353830339907517  0.4459132740020593  0.35285160706807506  1.0000
  H   H50       1.0  0.2848452889260712  0.33436755469111995  0.15641684993953217  1.0000
  H   H51       1.0  0.8134709510597559  0.71353838094862  0.6103777413834662  1.0000
  H   H52       1.0  0.8988777935717989  0.7586428286105331  0.5902411245421247  1.0000
  H   H53       1.0  0.7767197021131478  0.8261758057286599  0.4962086403436955  1.0000
  H   H54       1.0  0.7950580482540133  0.6592310289298311  0.4033518722692691  1.0000
  H   H55       1.0  0.696065680287816  0.6084429503596739  0.4026724513578727  1.0000
  H   H56       1.0  0.6137407191738687  0.6412134995894334  0.4803037079399956  1.0000
  H   H57       1.0  0.47723621969790736  0.6731809739009267  0.5078917915541651  1.0000
  H   H58       1.0  0.44725567139352046  0.8356249404181426  0.559619199660993  1.0000
  H   H59       1.0  0.5542232242010029  0.9646202289396298  0.579187759120657  1.0000
  H   H60       1.0  0.6905912469147638  0.9316466162519531  0.549320790266428  1.0000
  C   C1        1.0  0.08778298695298763  0.19764718077783533  0.2903908807565614  1.0000
  C   C2        1.0  0.09865767309033657  0.2675240202690786  0.3997834837830111  1.0000
  C   C3        1.0  0.20400246258786575  0.2952729041174607  0.5015461247770147  1.0000
  C   C4        1.0  0.21641057897571153  0.3888091976707315  0.6028012907862389  1.0000
  C   C5        1.0  0.31620799757868656  0.4345379896868096  0.7124960442061691  1.0000
  C   C6        1.0  0.2183366843129234  0.20841734943445536  0.5132404586985614  1.0000
  C   C7        1.0  0.17384259999226254  0.17923676540276995  0.5549647681677711  1.0000
  C   C8        1.0  0.18390731680089084  0.09656408730528199  0.5604894545922859  1.0000
  C   C9        1.0  0.23782310773068363  0.04067466580787741  0.5228361416820562  1.0000
  C   C10       1.0  0.28184753970178633  0.06846966682025614  0.4803550295039613  1.0000
  C   C11       1.0  0.27236193121754576  0.15200593214824917  0.47619246587960606  1.0000
  C   C12       1.0  0.899275943890693  0.8281475390713384  0.9691657341053527  1.0000
  C   C13       1.0  0.8585968433327906  0.7212009962027113  0.9243530941362721  1.0000
  C   C14       1.0  0.8028477078066274  0.7119591213305229  0.9766502530813951  1.0000
  C   C15       1.0  0.7264190522527868  0.6085053835249  0.8980252497615949  1.0000
  C   C16       1.0  0.6626518640316731  0.6013313803044511  0.9400409560281701  1.0000
  C   C17       1.0  0.8758462371900748  0.7395084820706755  0.09512381641815178  1.0000
  C   C18       1.0  0.9149808716910998  0.6709620781577927  0.11836769449009668  1.0000
  C   C19       1.0  0.9838466477204902  0.6989073579287535  0.227894833453604  1.0000
  C   C20       1.0  0.016287483499397046  0.7965006812724837  0.3160298080647265  1.0000
  C   C21       1.0  0.9789143806759952  0.8657344739987921  0.294012225200106  1.0000
  C   C22       1.0  0.9086764662205552  0.8370538971636492  0.18451741506988378  1.0000
  C   C23       1.0  0.23272492219403057  0.006759891217455994  0.09458497790164698  1.0000
  C   C24       1.0  0.3353893316941948  0.9950318087352698  0.1358571721042097  1.0000
  C   C25       1.0  0.33299169455830924  0.8866774894262761  0.09811713447888337  1.0000
  C   C26       1.0  0.4376227922088631  0.8814609985312671  0.12350679969410547  1.0000
  C   C27       1.0  0.44565990583839726  0.7782485239995083  0.0799061380539356  1.0000
  C   C28       1.0  0.2968012302352747  0.8525295785824129  0.1508294867517819  1.0000
  C   C29       1.0  0.3607856856403728  0.8721138644551304  0.258278687500244  1.0000
  C   C30       1.0  0.32439633634503917  0.8459938011164214  0.3077313474720498  1.0000
  C   C31       1.0  0.22289519189246926  0.8012100716337544  0.25143903581819416  1.0000
  C   C32       1.0  0.15850794768573448  0.7802742248155924  0.14415458220607033  1.0000
  C   C33       1.0  0.19551931749915497  0.8050066966676185  0.09413566521992318  1.0000
  C   C34       1.0  0.7973847931062963  0.1267004994604264  0.020270776884046895  1.0000
  C   C35       1.0  0.7205417840360724  0.16449436728075992  0.04279395350749839  1.0000
  C   C36       1.0  0.7104729660290302  0.2580564917685421  0.03941338921281099  1.0000
  C   C37       1.0  0.6219807717949024  0.2819855284657963  0.049407961242288  1.0000
  C   C38       1.0  0.5899274673294314  0.35793678955483443  0.022782152637724096  1.0000
  C   C39       1.0  0.8077212945314614  0.3415996512819746  0.12615511265275356  1.0000
  C   C40       1.0  0.8450129718655786  0.3927772258637319  0.24034518240461714  1.0000
  C   C41       1.0  0.9389497001748736  0.4627177028586473  0.31963822966440597  1.0000
  C   C42       1.0  0.997796604233862  0.48236811114681893  0.2860852682297903  1.0000
  C   C43       1.0  0.9611432068499043  0.43281466239581334  0.1726474664783879  1.0000
  C   C44       1.0  0.8665599824483506  0.3637725152486269  0.09368595738126119  1.0000
  C   C45       1.0  0.05210683365083917  0.21768794305666012  0.9539522537099855  1.0000
  C   C46       1.0  0.05820522967498217  0.28038659154550777  0.9106379951387779  1.0000
  C   C47       1.0  0.16618367100342366  0.34693360990428346  0.9781512503474727  1.0000
  C   C48       1.0  0.17157123187421772  0.39569584335091423  0.9187137749812847  1.0000
  C   C49       1.0  0.27800374187422244  0.4393881539921978  0.9610071096036703  1.0000
  C   C50       1.0  0.20154219719329086  0.4195302350231459  0.09917257494537779  1.0000
  C   C51       1.0  0.17182396378121467  0.5041687000921727  0.13173584570267138  1.0000
  C   C52       1.0  0.200607749962721  0.5672746546742076  0.24215910580318215  1.0000
  C   C53       1.0  0.2593866718642132  0.5466893032545315  0.32220519138657977  1.0000
  C   C54       1.0  0.28966822686953014  0.4628161531718646  0.2910673481872408  1.0000
  C   C55       1.0  0.2610929898943013  0.4000262303999804  0.18045496620099746  1.0000
  C   C56       1.0  0.8827547146136822  0.8672535959604346  0.7173928868125685  1.0000
  C   C57       1.0  0.8391056364177132  0.7726038880854561  0.6045578448694684  1.0000
  C   C58       1.0  0.7505424946219037  0.7680171367888066  0.5028962555433906  1.0000
  C   C59       1.0  0.7261794654664797  0.6675067123397795  0.39994075940910523  1.0000
  C   C60       1.0  0.6528704927873933  0.6528080679728987  0.2884031105236388  1.0000
  C   C61       1.0  0.6628596386224572  0.784583672716103  0.5137376128401172  1.0000
  C   C62       1.0  0.6017002164229125  0.7127222583919279  0.5024349227448183  1.0000
  C   C63       1.0  0.5245263143940447  0.7306290280555174  0.5183508091171659  1.0000
  C   C64       1.0  0.5072842183086904  0.821392746064852  0.5465128662304294  1.0000
  C   C65       1.0  0.5670750843529149  0.8934398140557035  0.5571606789455642  1.0000
  C   C66       1.0  0.6437029806665108  0.8746543492433576  0.5401011500093772  1.0000
  O   O1        1.0  0.9952473624369987  0.043483867366632  0.004553097521565499  1.0000
  O   O2        1.0  0.10674170967471497  0.2362632072714916  0.24608778758170755  1.0000
  O   O3        1.0  0.062298032611984425  0.10566178046897794  0.2502851850739347  1.0000
  O   O4        1.0  0.3536751459629385  0.37839073625278263  0.7441791220591083  1.0000
  O   O5        1.0  0.3533637301827781  0.5275513479514801  0.7660436221668688  1.0000
  O   O6        1.0  0.8351455948070664  0.8675899867564709  0.9321947033851925  1.0000
  O   O7        1.0  0.9923508516119312  0.8706166749209319  0.041306920235278696  1.0000
  O   O8        1.0  0.6908405255199169  0.5666382161797047  0.0015053959216331002  1.0000
  O   O9        1.0  0.588526979833368  0.6336071583147672  0.9138305528556357  1.0000
  O   O10       1.0  0.18622632921188395  0.995457561668239  0.9986864519105082  1.0000
  O   O11       1.0  0.20058918980182483  0.02482162018545609  0.15719018053255238  1.0000
  O   O12       1.0  0.4524669592251698  0.7416582185077304  0.13586321758319997  1.0000
  O   O13       1.0  0.4445448756340226  0.7368535707718139  0.9900749673075352  1.0000
  O   O14       1.0  0.7658267534253865  0.04755624867520677  0.9257140830518011  1.0000
  O   O15       1.0  0.88775154395978  0.1778146336923569  0.09664034538268848  1.0000
  O   O16       1.0  0.6471754249958012  0.4461321820116241  0.09461889279672418  1.0000
  O   O17       1.0  0.508393835877527  0.3268463979859674  0.9294866989851582  1.0000
  O   O18       1.0  0.0870766987194713  0.14590811202504025  0.9303213073161628  1.0000
  O   O19       1.0  0.014595317975412999  0.2437376778158011  0.012762022065643898  1.0000
  O   O20       1.0  0.3213493504601815  0.5298449329310203  0.039947390967199695  1.0000
  O   O21       1.0  0.31513901416311535  0.37992033336853137  0.9139469994403625  1.0000
  O   O22       1.0  0.9742820140658492  0.9137468968746489  0.7692364020003948  1.0000
  O   O23       1.0  0.8253756478003992  0.8912583921290957  0.7518631443410653  1.0000
  O   O24       1.0  0.5606106927572938  0.6276714533101354  0.2508678249662282  1.0000
  O   O25       1.0  0.6891255063080308  0.6654519097931626  0.2388618167834764  1.0000
  O   O26       1.0  0.4931420442887599  0.5475044653572568  0.9999438992923543  1.0000
