data_image0
_chemical_formula_structural       Cu2H16C4N24Cl4
_chemical_formula_sum              "Cu2 H16 C4 N24 Cl4"
_cell_length_a       6.497407506081644
_cell_length_b       6.558502778450622
_cell_length_c       12.26569659455795
_cell_angle_alpha    90.02809494177082
_cell_angle_beta     92.80716776886928
_cell_angle_gamma    89.88572779718716

_space_group_name_H-M_alt    "P 1"
_space_group_IT_number       1

loop_
  _space_group_symop_operation_xyz
  'x, y, z'

loop_
  _atom_site_type_symbol
  _atom_site_label
  _atom_site_symmetry_multiplicity
  _atom_site_fract_x
  _atom_site_fract_y
  _atom_site_fract_z
  _atom_site_occupancy
  Cu  Cu1       1.0  0.999996554251126  1.0647706431999852e-06  1.7621681539828449e-07  1.0000
  Cu  Cu2       1.0  4.3952271510138117e-07  0.5000001695708107  0.4999995549653561  1.0000
  H   H1        1.0  0.5793297532454459  0.34491641618998853  0.593913637928466  1.0000
  H   H2        1.0  0.4206830316114391  0.8445516869030315  0.906001367212866  1.0000
  H   H3        1.0  0.4206677053598041  0.6550834660265822  0.4060848316545317  1.0000
  H   H4        1.0  0.5793189975312673  0.1554466543468961  0.09399888991207918  1.0000
  H   H5        1.0  0.6878521486597933  0.12956082434463667  0.5483643253392428  1.0000
  H   H6        1.0  0.31251333569981204  0.6297200573651833  0.951562195502866  1.0000
  H   H7        1.0  0.312143717297154  0.8704360057096491  0.45163571558631316  1.0000
  H   H8        1.0  0.6874887187515808  0.37027676218904304  0.04843724505754918  1.0000
  H   H9        1.0  0.20991900201687488  0.1405757721558629  0.7789775139055164  1.0000
  H   H10       1.0  0.7900192190508902  0.6405625008301783  0.7211290964635636  1.0000
  H   H11       1.0  0.7900753498513993  0.8594256385258915  0.22102166517387184  1.0000
  H   H12       1.0  0.20998437677302917  0.35943736480852106  0.27887040175714617  1.0000
  H   H13       1.0  0.10184152806343151  0.16316467250640432  0.6462174500640641  1.0000
  H   H14       1.0  0.8981924943945785  0.6631653640575123  0.8538627899935987  1.0000
  H   H15       1.0  0.8981543388811062  0.8368367317517024  0.35378259705081655  1.0000
  H   H16       1.0  0.10181110175853551  0.3368360263157939  0.14613671029022157  1.0000
  C   C1        1.0  0.895984669468909  0.12892012564437041  0.7657993933888106  1.0000
  C   C2        1.0  0.10404410529248759  0.6288624333227231  0.7341786426365288  1.0000
  C   C3        1.0  0.10400965643228939  0.871079757263871  0.23420059812889346  1.0000
  C   C4        1.0  0.895959490531439  0.371137432315976  0.265820855584181  1.0000
  N   N1        1.0  0.718461343050258  0.1726659085955475  0.707086605879482  1.0000
  N   N2        1.0  0.2815804049891923  0.6724893074354625  0.7928047843879324  1.0000
  N   N3        1.0  0.2815329828509405  0.8273339743126938  0.292913385638215  1.0000
  N   N4        1.0  0.7184231651968531  0.32751055516433064  0.20719552833419633  1.0000
  N   N5        1.0  0.5543013155563159  0.1408693878729252  0.7705559413056944  1.0000
  N   N6        1.0  0.44565518569831397  0.6407017967141896  0.7291694658934487  1.0000
  N   N7        1.0  0.4456930106740771  0.8591320197699231  0.22944405227511305  1.0000
  N   N8        1.0  0.5543484097964111  0.3592965441898954  0.27083003026415037  1.0000
  N   N9        1.0  0.629129319143985  0.0844239837661434  0.865059365006118  1.0000
  N   N10       1.0  0.3707848500094285  0.5842902778870281  0.6346920990473777  1.0000
  N   N11       1.0  0.3708650074156026  0.9155789486113122  0.13494063063779996  1.0000
  N   N12       1.0  0.6292187458144909  0.4157095877516639  0.3653073991733321  1.0000
  N   N13       1.0  0.8381532765713968  0.0732497426553778  0.8656712387948529  1.0000
  N   N14       1.0  0.1618349157260326  0.5731415192333315  0.6342403010343317  1.0000
  N   N15       1.0  0.1618410496589959  0.9267516649874705  0.13432875478595455  1.0000
  N   N16       1.0  0.8381687057357752  0.42685834944426665  0.3657583826849588  1.0000
  N   N17       1.0  0.7054893010272352  0.24963528860904197  0.6019854304708827  1.0000
  N   N18       1.0  0.2946043087039882  0.7496652117296206  0.8979162218537976  1.0000
  N   N19       1.0  0.2945065908967948  0.7503630692187498  0.3980137980163575  1.0000
  N   N20       1.0  0.7053961797245805  0.2503331329050481  0.10208398173707417  1.0000
  N   N21       1.0  0.08325393795252008  0.13083542084486774  0.7270554533803163  1.0000
  N   N22       1.0  0.9168388066172923  0.630999549099194  0.7729816284109461  1.0000
  N   N23       1.0  0.9167403882778797  0.8691659867979808  0.2729445402004913  1.0000
  N   N24       1.0  0.0831647895358287  0.36900184127411245  0.22701787187287434  1.0000
  Cl  Cl1       1.0  0.2063502876405749  0.2849955644627756  0.9787587987590808  1.0000
  Cl  Cl2       1.0  0.7930968631537566  0.7854075261501806  0.5212918965431967  1.0000
  Cl  Cl3       1.0  0.7936471456559887  0.715005839449496  0.021240487388446593  1.0000
  Cl  Cl4       1.0  0.20690516598894243  0.2145908150997471  0.4787083605817556  1.0000
