data_image0
_chemical_formula_structural       Cd2H16C24I4N8O2
_chemical_formula_sum              "Cd2 H16 C24 I4 N8 O2"
_cell_length_a       6.768110849337047
_cell_length_b       8.750687696315309
_cell_length_c       14.735740521632662
_cell_angle_alpha    89.99979867967377
_cell_angle_beta     89.9986613639348
_cell_angle_gamma    112.58400102750578

_space_group_name_H-M_alt    "P 1"
_space_group_IT_number       1

loop_
  _space_group_symop_operation_xyz
  'x, y, z'

loop_
  _atom_site_type_symbol
  _atom_site_label
  _atom_site_symmetry_multiplicity
  _atom_site_fract_x
  _atom_site_fract_y
  _atom_site_fract_z
  _atom_site_occupancy
  Cd  Cd1       1.0  0.07339200224046749  0.48515887023798854  0.3066284642256605  1.0000
  Cd  Cd2       1.0  0.9265991922351731  0.514854504491737  0.8066241814201618  1.0000
  H   H1        1.0  0.3579201608040705  0.889811882451639  0.2595332000042987  1.0000
  H   H2        1.0  0.6420964011518747  0.11019660127656292  0.7595341544528011  1.0000
  H   H3        1.0  0.5404700781817482  0.07745618215721349  0.1289121231857777  1.0000
  H   H4        1.0  0.45955463228266086  0.9225286965545082  0.628923703229269  1.0000
  H   H5        1.0  0.5575668263046012  0.9496885446544638  0.9785873166334511  1.0000
  H   H6        1.0  0.4424102404735848  0.050282481655507597  0.47859985944677425  1.0000
  H   H7        1.0  0.4011481058400507  0.6388737584736787  0.9639029308413782  1.0000
  H   H8        1.0  0.5988057358419641  0.3610899839078955  0.4638944773193144  1.0000
  H   H9        1.0  0.1740316806352382  0.1756101429450183  0.8773497772173684  1.0000
  H   H10       1.0  0.8259698677332069  0.8244022359473178  0.3773609780258838  1.0000
  H   H11       1.0  0.09357058351566394  0.9195765180652202  0.7845821731455658  1.0000
  H   H12       1.0  0.9064579988175437  0.0804134441273092  0.2845756392460572  1.0000
  H   H13       1.0  0.8487902103799528  0.6144853628468925  0.0069418080329697  1.0000
  H   H14       1.0  0.15118096509506534  0.3855289138881659  0.5069259619750142  1.0000
  H   H15       1.0  0.9240396405870895  0.857024896605857  0.1103485315623729  1.0000
  H   H16       1.0  0.0759542952387093  0.14301103139911223  0.6103442701610645  1.0000
  C   C1        1.0  0.37039537642596093  0.8404082799895535  0.19259192548676646  1.0000
  C   C2        1.0  0.6296172481527407  0.15958604915756072  0.6925887063067221  1.0000
  C   C3        1.0  0.4720431810195438  0.9434326031705071  0.11994023269687659  1.0000
  C   C4        1.0  0.5279680495119549  0.05655433949605279  0.6199501097908283  1.0000
  C   C5        1.0  0.4825821910401162  0.871479391076001  0.03658132385155001  1.0000
  C   C6        1.0  0.5173991477074152  0.12849614170873747  0.5365824132800725  1.0000
  C   C7        1.0  0.39545286557378034  0.6996710466435873  0.0280096970315284  1.0000
  C   C8        1.0  0.6045224374139196  0.3003065574747694  0.528005937022094  1.0000
  C   C9        1.0  0.29840431591937755  0.6069064309025621  0.1044237641092209  1.0000
  C   C10       1.0  0.701591133574709  0.39308569859541354  0.6044094358878951  1.0000
  C   C11       1.0  0.20392190247221728  0.42753909006416546  0.1045812838126565  1.0000
  C   C12       1.0  0.796069992507327  0.5724517666115218  0.6045667969274433  1.0000
  C   C13       1.0  0.0974272081360965  0.17597814127428527  0.0610018034867181  1.0000
  C   C14       1.0  0.902578088705802  0.8240308281132445  0.5610016916979745  1.0000
  C   C15       1.0  0.056795646614069994  0.0355669940164063  0.0016985797139313  1.0000
  C   C16       1.0  0.943212754346554  0.9644492923868812  0.5017000854053535  1.0000
  C   C17       1.0  0.10445420864544988  0.053715564406452615  0.9088398244422962  1.0000
  C   C18       1.0  0.8955546694665131  0.9462911752135028  0.4088429948840897  1.0000
  C   C19       1.0  0.06024125869462457  0.911261476902816  0.8571533277462606  1.0000
  C   C20       1.0  0.9397787140604166  0.0887456843705365  0.357150227877895  1.0000
  C   C21       1.0  0.9233199553564121  0.7412029566701225  0.9815586216232645  1.0000
  C   C22       1.0  0.07667165637276699  0.2588122756911914  0.4815474974364946  1.0000
  C   C23       1.0  0.9639912971969125  0.8758583950431813  0.0385537688298143  1.0000
  C   C24       1.0  0.0360080720446021  0.12416270133769558  0.5385480131478815  1.0000
  I   I1        1.0  0.6626651672411585  0.4639652071929562  0.2650776801273196  1.0000
  I   I2        1.0  0.3373443923539838  0.5360364948277336  0.7650953259555706  1.0000
  I   I3        1.0  0.30718545013179016  0.7070392212101311  0.44026888637561973  1.0000
  I   I4        1.0  0.6928536918935962  0.29297560391505334  0.9402814889302675  1.0000
  N   N1        1.0  0.283915305096059  0.6756721656230127  0.1850804331189337  1.0000
  N   N2        1.0  0.7160973002226285  0.32432416563207067  0.6850673607074215  1.0000
  N   N3        1.0  0.10916734203564007  0.334009945738302  0.173981039981328  1.0000
  N   N4        1.0  0.8908234911391942  0.6659750421059201  0.6739690234208098  1.0000
  N   N5        1.0  0.04020936170494593  0.17218382805101132  0.14631748702343117  1.0000
  N   N6        1.0  0.9597874717267273  0.8278027926978738  0.6463160484303074  1.0000
  N   N7        1.0  0.9714839326757244  0.7577919913563351  0.8925313575823921  1.0000
  N   N8        1.0  0.028521785292639452  0.24221269473675025  0.39252059401375305  1.0000
  O   O1        1.0  0.20417294662463806  0.3350782792270764  0.0308749376610393  1.0000
  O   O2        1.0  0.7958271670101026  0.6649312698375596  0.5308662315555921  1.0000
