data_image0
_chemical_formula_structural       Cd2H48C52N4O16
_chemical_formula_sum              "Cd2 H48 C52 N4 O16"
_cell_length_a       5.584338453
_cell_length_b       13.87004215076042
_cell_length_c       15.52
_cell_angle_alpha    90.0
_cell_angle_beta     90.0
_cell_angle_gamma    96.87521092163006

_space_group_name_H-M_alt    "P 1"
_space_group_IT_number       1

loop_
  _space_group_symop_operation_xyz
  'x, y, z'

loop_
  _atom_site_type_symbol
  _atom_site_label
  _atom_site_symmetry_multiplicity
  _atom_site_fract_x
  _atom_site_fract_y
  _atom_site_fract_z
  _atom_site_occupancy
  Cd  Cd1       1.0  0.20029113346408417  0.2102836377406518  0.6452944587628837  1.0000
  Cd  Cd2       1.0  0.7997120616172921  0.7897108564266515  0.1452944587628835  1.0000
  H   H1        1.0  0.8987362723345598  0.4464839112294641  0.6721817010309294  1.0000
  H   H2        1.0  0.10123576931928109  0.553514213939259  0.1721849226804153  1.0000
  H   H3        1.0  0.1329493211128039  0.6111222300968038  0.6697377577319588  1.0000
  H   H4        1.0  0.8670303152609833  0.3888773474724943  0.16974355670102886  1.0000
  H   H5        1.0  0.5623254374407907  0.7243586404367193  0.8114626288659823  1.0000
  H   H6        1.0  0.43767361756319895  0.2756460205345661  0.3114613402061863  1.0000
  H   H7        1.0  0.3298765631418874  0.560794371789946  0.8089626288659773  1.0000
  H   H8        1.0  0.6701065912755837  0.4392110153816233  0.3089561855670128  1.0000
  H   H9        1.0  0.8897728007083785  0.8193550782344232  0.8592409793814468  1.0000
  H   H10       1.0  0.11021205531860549  0.18063796353231248  0.35924162371134133  1.0000
  H   H11       1.0  0.7706687060991301  0.8616911024119174  0.7609581185567009  1.0000
  H   H12       1.0  0.2293223857557152  0.1383048441559538  0.2609523195876307  1.0000
  H   H13       1.0  0.9466801280882675  0.0093367570559906  0.7002390463917507  1.0000
  H   H14       1.0  0.053310468535123265  0.9906635467135912  0.2002338917525748  1.0000
  H   H15       1.0  0.6087227738843666  0.1482908242661551  0.7803318298969089  1.0000
  H   H16       1.0  0.3912663113329131  0.8517043961014323  0.2803324742268032  1.0000
  H   H17       1.0  0.6736502203401358  0.0108777540593934  0.8787422680412365  1.0000
  H   H18       1.0  0.3263365789232893  0.9891218235098975  0.3787390463917505  1.0000
  H   H19       1.0  0.3611670291832353  0.866096233336833  0.8848054123711366  1.0000
  H   H20       1.0  0.6388206337408278  0.1339062490336005  0.3847951030927845  1.0000
  H   H21       1.0  0.5032333738529715  0.9789020069081289  0.6150309278350505  1.0000
  H   H22       1.0  0.4967896716889229  0.021099023061729796  0.11502448453608592  1.0000
  H   H23       1.0  0.2519706330219194  0.818094394540779  0.6126185567010296  1.0000
  H   H24       1.0  0.748045465545502  0.18190736162937068  0.1126127577319593  1.0000
  H   H25       1.0  0.766158923223891  0.7102442117099415  0.4398788659793809  1.0000
  H   H26       1.0  0.23385458436160889  0.2897488300567943  0.9398724226804094  1.0000
  H   H27       1.0  0.01178966902472208  0.8697090797515158  0.4432493556701047  1.0000
  H   H28       1.0  0.988220688946285  0.1302854144157877  0.9432493556701049  1.0000
  H   H29       1.0  0.5994191321714125  0.570977152177214  0.5236817010309309  1.0000
  H   H30       1.0  0.4005959502213443  0.4290151633892378  0.023672036082473407  1.0000
  H   H31       1.0  0.47713599090942427  0.600356310881196  0.4220844072164951  1.0000
  H   H32       1.0  0.5228738084290043  0.3996483500900893  0.9220824742268052  1.0000
  H   H33       1.0  0.9842163847702493  0.5540457925474129  0.4108124999999987  1.0000
  H   H34       1.0  0.0157990660516916  0.4459537850218851  0.910814432989689  1.0000
  H   H35       1.0  0.6818728252281615  0.407022913977741  0.4310418814432992  1.0000
  H   H36       1.0  0.318136110449629  0.5929788421924016  0.9310463917525811  1.0000
  H   H37       1.0  0.7824350729911203  0.2723904646597859  0.523576030927835  1.0000
  H   H38       1.0  0.2175704971570127  0.7276120177106478  0.0235831185567008  1.0000
  H   H39       1.0  0.45225026626342657  0.4194540104453779  0.5836997422680383  1.0000
  H   H40       1.0  0.5477426163138261  0.5805419361224935  0.08369780927834823  1.0000
  H   H41       1.0  0.7910485373472368  0.2857554546931098  0.7285811855670092  1.0000
  H   H42       1.0  0.208952740209476  0.7142506586787434  0.2285824742268048  1.0000
  H   H43       1.0  0.05086203588032129  0.306195814096931  0.7752603092783519  1.0000
  H   H44       1.0  0.9491355077175426  0.693803763472367  0.2752583762886616  1.0000
  H   H45       1.0  0.5966234510905506  0.1337355919667758  0.5586494845360832  1.0000
  H   H46       1.0  0.4033790328442208  0.8662625332019545  0.058648840206188914  1.0000
  H   H47       1.0  0.33371576714772994  0.11493499280503268  0.5117789948453579  1.0000
  H   H48       1.0  0.6662963181445533  0.8850653109645492  0.011779639175259104  1.0000
  C   C1        1.0  0.4519513991478803  0.3953572326098183  0.7501056701030964  1.0000
  C   C2        1.0  0.548042994835491  0.6046437973600476  0.2501050257731947  1.0000
  C   C3        1.0  0.6019003650971585  0.4919309774251488  0.745253865979379  1.0000
  C   C4        1.0  0.3980863707651352  0.5080744097464205  0.24524999999999866  1.0000
  C   C5        1.0  0.8266825409920457  0.5070722533540106  0.7034510309278377  1.0000
  C   C6        1.0  0.17330669673926016  0.492929502816139  0.2034536082474219  1.0000
  C   C7        1.0  0.9595409014766503  0.5983701531034737  0.7025405927835069  1.0000
  C   C8        1.0  0.040440957449867185  0.4016308768663848  0.20254123711340102  1.0000
  C   C9        1.0  0.8708746217267274  0.6764969582955513  0.7448524484536068  1.0000
  C   C10       1.0  0.1291147685186047  0.3235113336771605  0.2448505154639165  1.0000
  C   C11       1.0  0.6410934148176394  0.6638995619627934  0.7827274484536064  1.0000
  C   C12       1.0  0.3588980454663967  0.3361036466079241  0.2827274484536062  1.0000
  C   C13       1.0  0.5106050983573169  0.5720867862117132  0.7820773195876285  1.0000
  C   C14       1.0  0.4893760494225886  0.4279178747595721  0.28207152061855834  1.0000
  C   C15       1.0  0.9343842822964632  0.8416610461687597  0.7923917525773163  1.0000
  C   C16       1.0  0.0656243106639067  0.1583516030056487  0.292385953608246  1.0000
  C   C17       1.0  0.13018001937493304  0.9253672481455553  0.7914452319587613  1.0000
  C   C18       1.0  0.8698292847320487  0.0746417700274407  0.29144329896907106  1.0000
  C   C19       1.0  0.10650473937293731  0.005931603922633098  0.7400032216494881  1.0000
  C   C20       1.0  0.893496970014091  0.9940759618497879  0.2400057989690723  1.0000
  C   C21       1.0  0.47531003777550046  0.0843271032199198  0.7846411082474205  1.0000
  C   C22       1.0  0.5246662330686291  0.9156732005496622  0.2846391752577305  1.0000
  C   C23       1.0  0.5125625099025939  0.007198823418839599  0.8385773195876283  1.0000
  C   C24       1.0  0.4874227145535811  0.9928014803507421  0.3385689432989665  1.0000
  C   C25       1.0  0.3380899875217906  0.9266860278619475  0.8418730670103118  1.0000
  C   C26       1.0  0.6618972435719428  0.0733150021079183  0.3418672680412342  1.0000
  C   C27       1.0  0.9346040566932314  0.0301656336119436  0.530286082474227  1.0000
  C   C28       1.0  0.06540265643183567  0.9698346701576382  0.030286082474226806  1.0000
  C   C29       1.0  0.7757244091563463  0.9356291843638116  0.5288608247422673  1.0000
  C   C30       1.0  0.22428594881466069  0.0643653098034918  0.028858891752577207  1.0000
  C   C31       1.0  0.5602226887912493  0.920033307056947  0.5765753865979379  1.0000
  C   C32       1.0  0.4397871739483108  0.07996554431206698  0.076568943298966  1.0000
  C   C33       1.0  0.4185007929724947  0.830634421051073  0.5755141752577304  1.0000
  C   C34       1.0  0.5815021861937238  0.1693593469159467  0.0755083762886599  1.0000
  C   C35       1.0  0.4918696052875049  0.7540457080612697  0.5266591494845372  1.0000
  C   C36       1.0  0.5081389619610945  0.24594878610603385  0.026657860824741406  1.0000
  C   C37       1.0  0.7065522914181628  0.7681034931658672  0.4787712628865962  1.0000
  C   C38       1.0  0.2934652294424751  0.23189100100143628  0.9787654639175261  1.0000
  C   C39       1.0  0.8449349632978169  0.8584435347402746  0.4801527061855638  1.0000
  C   C40       1.0  0.15508385305378167  0.1415553166287395  0.9801501288659795  1.0000
  C   C41       1.0  0.43315820529657856  0.5852288327577355  0.490260309278348  1.0000
  C   C42       1.0  0.5668590996489016  0.4147649352092841  0.9902545103092779  1.0000
  C   C43       1.0  0.24318424017377538  0.49953647300322496  0.4974716494845382  1.0000
  C   C44       1.0  0.7568173166992267  0.5004645569666337  0.9974664948453624  1.0000
  C   C45       1.0  0.0239702763856116  0.4950645316521545  0.4530012886597917  1.0000
  C   C46       1.0  0.9760407293308829  0.5049321411160079  0.9530012886597916  1.0000
  C   C47       1.0  0.8562692130234311  0.413099031756964  0.4629536082474246  1.0000
  C   C48       1.0  0.1437265398520253  0.5869005458123269  0.9629626288659809  1.0000
  C   C49       1.0  0.9114674093587141  0.3370578737815677  0.5148801546391724  1.0000
  C   C50       1.0  0.08854653005711549  0.6629366203857359  0.014883376288658203  1.0000
  C   C51       1.0  0.2839563565149277  0.42009234049533  0.5482454896907216  1.0000
  C   C52       1.0  0.7160461274198439  0.579905784673393  0.04824420103092561  1.0000
  N   N1        1.0  0.12295017171412327  0.34035409687226786  0.5566913659793828  1.0000
  N   N2        1.0  0.8770462923079448  0.6596418496956034  0.05669458762886851  1.0000
  N   N3        1.0  0.27552646581058576  0.0835326401088281  0.7360238402061869  1.0000
  N   N4        1.0  0.7244682966019695  0.9164756518638767  0.23602448453608105  1.0000
  O   O1        1.0  0.5168424079193698  0.3245185734715648  0.7050483247422648  1.0000
  O   O2        1.0  0.4831387398605358  0.6754860874997206  0.2050470360824761  1.0000
  O   O3        1.0  0.2656935845677637  0.3885955817621607  0.7976456185567005  1.0000
  O   O4        1.0  0.7342905603126084  0.6114010910059944  0.2976353092783484  1.0000
  O   O5        1.0  0.019972971605277154  0.7619714579647549  0.7460979381443311  1.0000
  O   O6        1.0  0.9800197841697125  0.2380361078076731  0.24609471649484504  1.0000
  O   O7        1.0  0.8764583795140267  0.09865430863001728  0.580150773195875  1.0000
  O   O8        1.0  0.1235537691793951  0.9013401855372862  0.0801456185566991  1.0000
  O   O9        1.0  0.1222898682426106  0.0384907936718193  0.48361340206185593  1.0000
  O   O10       1.0  0.8777264462399683  0.9615116886986143  0.9836146907216519  1.0000
  O   O11       1.0  0.3428622724889223  0.6681434764245822  0.5294600515463943  1.0000
  O   O12       1.0  0.6571548799425243  0.3318437557398823  0.02945554123711251  1.0000
  O   O13       1.0  0.9303422242756766  0.2536254493119827  0.7494993556701035  1.0000
  O   O14       1.0  0.06966177106520631  0.7463777592587348  0.24950064432989905  1.0000
  O   O15       1.0  0.4584777598368887  0.1667755263041997  0.5377106958762854  1.0000
  O   O16       1.0  0.5415293851184941  0.833226229865943  0.03771069587628521  1.0000
