data_image0
_chemical_formula_structural       AlH6C27N13O18
_chemical_formula_sum              "Al1 H6 C27 N13 O18"
_cell_length_a       4.183808687900548
_cell_length_b       18.38502309774887
_cell_length_c       18.38413857155304
_cell_angle_alpha    123.19065177314678
_cell_angle_beta     102.50052661039157
_cell_angle_gamma    97.35971737314367

_space_group_name_H-M_alt    "P 1"
_space_group_IT_number       1

loop_
  _space_group_symop_operation_xyz
  'x, y, z'

loop_
  _atom_site_type_symbol
  _atom_site_label
  _atom_site_symmetry_multiplicity
  _atom_site_fract_x
  _atom_site_fract_y
  _atom_site_fract_z
  _atom_site_occupancy
  Al  Al1       1.0  0.021817389735169092  0.009174943880466909  0.49470572428777626  1.0000
  H   H1        1.0  0.36584897616262424  0.30718239758027727  0.4056941942777501  1.0000
  H   H2        1.0  0.6876803574039699  0.081597077216891  0.8968891545153428  1.0000
  H   H3        1.0  0.47544365805120486  0.5971168256310264  0.18638265015721353  1.0000
  H   H4        1.0  0.6059667828958836  0.31940197388696834  0.9103913850417273  1.0000
  H   H5        1.0  0.3288827855354909  0.6013968355807576  0.4131203353019403  1.0000
  H   H6        1.0  0.5846831377414431  0.0823232089378436  0.18447230335151946  1.0000
  C   C1        1.0  0.4938399392193986  0.06806233003911899  0.42767564789920004  1.0000
  C   C2        1.0  0.6769720925716457  0.07823766191859248  0.6348305512346075  1.0000
  C   C3        1.0  0.3922157564531972  0.8706839615066498  0.42891055894511265  1.0000
  C   C4        1.0  0.41271980962885374  0.24125216807613006  0.37309985832132503  1.0000
  C   C5        1.0  0.474604705061722  0.20024277483459224  0.28940794597833275  1.0000
  C   C6        1.0  0.687400326746548  0.11935002785187268  0.8674867892765195  1.0000
  C   C7        1.0  0.6613753074268515  0.20775185465449647  0.9166693445905099  1.0000
  C   C8        1.0  0.3945091878504952  0.5871122668130296  0.292925672753718  1.0000
  C   C9        1.0  0.4340475944661433  0.6321123496703007  0.25254694975300407  1.0000
  C   C10       1.0  0.6373500130216597  0.25160220753803486  0.873999888707502  1.0000
  C   C11       1.0  0.6404188105159105  0.20715243573104658  0.7844261929737615  1.0000
  C   C12       1.0  0.6875221609411424  0.11997857422955598  0.7336446070007058  1.0000
  C   C13       1.0  0.7021656197190111  0.0774430847898131  0.778748834529168  1.0000
  C   C14       1.0  0.4290454079409184  0.7216369166283553  0.2979901327455465  1.0000
  C   C15       1.0  0.3705849980666827  0.7709698633469132  0.38320890326701856  1.0000
  C   C16       1.0  0.33043622654951565  0.722382437073925  0.42108317650515675  1.0000
  C   C17       1.0  0.3458230046297357  0.6334140115839941  0.3782458585364807  1.0000
  C   C18       1.0  0.5367179577509018  0.11576869404206747  0.24966584591943794  1.0000
  C   C19       1.0  0.5357576370867746  0.0741867113351731  0.29380511848436447  1.0000
  C   C20       1.0  0.4798211642454148  0.11337981600119923  0.378561953372497  1.0000
  C   C21       1.0  0.4184863098479923  0.19812786070308158  0.4158323610790689  1.0000
  C   C22       1.0  0.42730281939601855  0.3702010600324783  0.24794143823714887  1.0000
  C   C23       1.0  0.5721609282876726  0.2456451887057582  0.12600500835996098  1.0000
  C   C24       1.0  0.4805770176434407  0.24620236084627578  0.2443485216301725  1.0000
  C   C25       1.0  0.4231616339866303  0.49397609470910436  0.24686975820748813  1.0000
  C   C26       1.0  0.5373789316341584  0.3773548577378917  0.1270554010042204  1.0000
  C   C27       1.0  0.6304020917424963  0.25323539709471987  0.009220655491141398  1.0000
  N   N1        1.0  0.5120390215686825  0.3309893125528731  0.16698338714829225  1.0000
  N   N2        1.0  0.5631150095840592  0.20471281856730167  0.16720209482577536  1.0000
  N   N3        1.0  0.40491436933285735  0.3254829975967155  0.2850498337297865  1.0000
  N   N4        1.0  0.36973652952036656  0.4511824174550297  0.28555692746331834  1.0000
  N   N5        1.0  0.5041040371151835  0.4606890754848719  0.16982904577454877  1.0000
  N   N6        1.0  0.6376479488246076  0.20773835292259688  0.04684073301411473  1.0000
  N   N7        1.0  0.5923345383578392  0.336694599103005  0.04678499100464258  1.0000
  N   N8        1.0  0.5943206074753888  0.9837974450521685  0.24687807360087555  1.0000
  N   N9        1.0  0.36675299717811777  0.2472802084341267  0.5063266354721991  1.0000
  N   N10       1.0  0.2881895699529122  0.761999916429488  0.5129784276783982  1.0000
  N   N11       1.0  0.4913180362472005  0.758195171304628  0.24539534741741437  1.0000
  N   N12       1.0  0.5736642694629808  0.26076121456895146  0.7476038884159097  1.0000
  N   N13       1.0  0.706900643463662  0.9810031615656031  0.7331971531828646  1.0000
  O   O1        1.0  0.19747565953292678  0.9063737709983924  0.4728144063751928  1.0000
  O   O2        1.0  0.21089719892847114  0.019077692916091807  0.41248960759884323  1.0000
  O   O3        1.0  0.43706296504907277  0.0894095721369936  0.5896995737718316  1.0000
  O   O4        1.0  0.6183059231872576  0.9119828186627997  0.41661929693201244  1.0000
  O   O5        1.0  0.8935817893628054  0.0400006952281515  0.6042822356077693  1.0000
  O   O6        1.0  0.7913174715428896  0.0851325715646922  0.47887187701705625  1.0000
  O   O7        1.0  0.4934169269181225  0.9352496025045552  0.2690147178323132  1.0000
  O   O8        1.0  0.7378174703872132  0.9639466458292602  0.18900488804480642  1.0000
  O   O9        1.0  0.4860307838282905  0.22782559115162118  0.5586306858378196  1.0000
  O   O10       1.0  0.21043378861823217  0.3043410500642239  0.5225983912299486  1.0000
  O   O11       1.0  0.08819182929401835  0.8078998052248917  0.5327658133146614  1.0000
  O   O12       1.0  0.4500396230080383  0.7419846524142882  0.5606328705061474  1.0000
  O   O13       1.0  0.7897842522153906  0.7993881806097817  0.2658852860804402  1.0000
  O   O14       1.0  0.2422103503076655  0.7356990745975904  0.17962922580035476  1.0000
  O   O15       1.0  0.2722924501694593  0.24295440830869813  0.7035161642511272  1.0000
  O   O16       1.0  0.818730668989545  0.3237233193782245  0.7722298413819149  1.0000
  O   O17       1.0  0.8512213725103733  0.9500436801127775  0.6754454520760194  1.0000
  O   O18       1.0  0.5666716306776394  0.9399377445640554  0.75859342675642  1.0000
