data_image0
_chemical_formula_structural       Cu2H56Pd4C32N8Cl12O8
_chemical_formula_sum              "Cu2 H56 Pd4 C32 N8 Cl12 O8"
_cell_length_a       10.360414913789645
_cell_length_b       10.72445210349794
_cell_length_c       13.142460241074545
_cell_angle_alpha    89.99979623668618
_cell_angle_beta     89.99979501681082
_cell_angle_gamma    115.30013934778985

_space_group_name_H-M_alt    "P 1"
_space_group_IT_number       1

loop_
  _space_group_symop_operation_xyz
  'x, y, z'

loop_
  _atom_site_type_symbol
  _atom_site_label
  _atom_site_symmetry_multiplicity
  _atom_site_fract_x
  _atom_site_fract_y
  _atom_site_fract_z
  _atom_site_occupancy
  Cu  Cu1       1.0  0.9999994619613163  0.5000024950518595  0.49999939683766575  1.0000
  Cu  Cu2       1.0  0.5000014459246317  0.5000020513358835  0.999997044422088  1.0000
  H   H1        1.0  0.8542568234397409  0.22078841485016915  0.5974041374831033  1.0000
  H   H2        1.0  0.6457472980832434  0.7792192379889755  0.09740211822031601  1.0000
  H   H3        1.0  0.1457424392956383  0.7792154424929976  0.4025899697040246  1.0000
  H   H4        1.0  0.3542562786482719  0.2207856359705218  0.9025942716369358  1.0000
  H   H5        1.0  0.6901886255376438  0.4870030145357517  0.4557767747415583  1.0000
  H   H6        1.0  0.8098064383566737  0.5129987973953548  0.9557750390644417  1.0000
  H   H7        1.0  0.3098082944875599  0.5129977523599507  0.5442234195936139  1.0000
  H   H8        1.0  0.19019232048852786  0.48700609498649766  0.044223633477166416  1.0000
  H   H9        1.0  0.08916040964955842  0.39488112038029044  0.836752079481123  1.0000
  H   H10       1.0  0.41084415560789  0.6051194126307848  0.3367498156048755  1.0000
  H   H11       1.0  0.9108327444017235  0.6051155283987839  0.16325039754283927  1.0000
  H   H12       1.0  0.5891600574949578  0.39487822698741576  0.6632480960469211  1.0000
  H   H13       1.0  0.21989072852932884  0.3835727236829031  0.7554984805097292  1.0000
  H   H14       1.0  0.28011260232631935  0.6164263772225168  0.25549883318232264  1.0000
  H   H15       1.0  0.7801052279022117  0.616428046881417  0.24450627918205475  1.0000
  H   H16       1.0  0.7198925743458914  0.3835712587035757  0.7445006002532183  1.0000
  H   H17       1.0  0.11830724114717128  0.14029376231276558  0.7657847161447935  1.0000
  H   H18       1.0  0.3816944959855988  0.8597083643931144  0.26578484924248613  1.0000
  H   H19       1.0  0.881692525454099  0.8597090599682246  0.23421091282818912  1.0000
  H   H20       1.0  0.6183068263818114  0.14028928627497805  0.7342153450909736  1.0000
  H   H21       1.0  0.01934709073254482  0.15561716900860745  0.8723638122910913  1.0000
  H   H22       1.0  0.4806533801192429  0.8443810375300913  0.3723637120114915  1.0000
  H   H23       1.0  0.980649457935243  0.8443784336730715  0.12763409937436174  1.0000
  H   H24       1.0  0.5193494096925305  0.1556155743925274  0.6276372432139469  1.0000
  H   H25       1.0  0.8975381523121655  0.027386115178366303  0.68288302180612  1.0000
  H   H26       1.0  0.6024662946196739  0.9726188079712725  0.1828851359189514  1.0000
  H   H27       1.0  0.10246115458866  0.9726156757354829  0.31711184627643973  1.0000
  H   H28       1.0  0.3975397572758368  0.027382957106659903  0.8171181019721774  1.0000
  H   H29       1.0  0.8089442460483764  0.087632718710843  0.7741155974726368  1.0000
  H   H30       1.0  0.6910562105506983  0.9123663473240242  0.2741161139714379  1.0000
  H   H31       1.0  0.19105175458504667  0.912365985459395  0.22588079240405534  1.0000
  H   H32       1.0  0.3089456598480425  0.0876282018525814  0.7258863630433227  1.0000
  H   H33       1.0  0.6043613522903327  0.0785141323759007  0.4372923557460808  1.0000
  H   H34       1.0  0.8956305087584441  0.9214868019056651  0.9372816022389475  1.0000
  H   H35       1.0  0.3956375390451185  0.9214845607121517  0.5627101212669317  1.0000
  H   H36       1.0  0.1043726082665586  0.07851704068082911  0.06271554851296911  1.0000
  H   H37       1.0  0.6880769381518732  0.16507216700631494  0.324670887548642  1.0000
  H   H38       1.0  0.8119241226924814  0.8349244388753333  0.8246590943615788  1.0000
  H   H39       1.0  0.31192098960509895  0.8349265297650277  0.6753323503582538  1.0000
  H   H40       1.0  0.18808230060599843  0.16508249046064802  0.17533501281112512  1.0000
  H   H41       1.0  0.3980705182990789  0.12654632983898043  0.40976120108975794  1.0000
  H   H42       1.0  0.10192529585473406  0.8734526379334967  0.9097628211321979  1.0000
  H   H43       1.0  0.6019260303474496  0.8734492728221569  0.5902420368234972  1.0000
  H   H44       1.0  0.8980773614485642  0.12655017326531492  0.090238894977098  1.0000
  H   H45       1.0  0.44992466005161447  0.13729032860312876  0.27945902591987704  1.0000
  H   H46       1.0  0.05008228968028318  0.8627106391057568  0.779458539258542  1.0000
  H   H47       1.0  0.5500714288884012  0.8627042426849985  0.7205449728880424  1.0000
  H   H48       1.0  0.9499242660932694  0.1372900909217449  0.22054317684827401  1.0000
  H   H49       1.0  0.43981566560151447  0.3597932210682302  0.3870976246113359  1.0000
  H   H50       1.0  0.06018225661371449  0.6402059142083374  0.8870985070088654  1.0000
  H   H51       1.0  0.5601799194756437  0.6402023852850078  0.6129040915181747  1.0000
  H   H52       1.0  0.9398199409861049  0.35979586562039867  0.11290320910255502  1.0000
  H   H53       1.0  0.5611531033824021  0.3842237043996732  0.28386408477784647  1.0000
  H   H54       1.0  0.9388477351102863  0.6157763177906119  0.783863215412673  1.0000
  H   H55       1.0  0.4388415622877985  0.6157698392134207  0.7161376313558991  1.0000
  H   H56       1.0  0.06115492219908703  0.3842264934140688  0.21613697891154263  1.0000
  Pd  Pd1       1.0  0.877339540434491  0.8315698378571451  0.5056563304778835  1.0000
  Pd  Pd2       1.0  0.6226582853826342  0.16842925163544462  0.0056561230377383  1.0000
  Pd  Pd3       1.0  0.12265985477292671  0.16842782017459973  0.49434614653590364  1.0000
  Pd  Pd4       1.0  0.37733913850845374  0.8315704801980817  0.9943455930833027  1.0000
  C   C1        1.0  0.02414152505874508  0.3506542641960663  0.6819242972785065  1.0000
  C   C2        1.0  0.475862348940822  0.6493474708592684  0.18191944207544716  1.0000
  C   C3        1.0  0.975856402698227  0.6493444325752762  0.3180789406283894  1.0000
  C   C4        1.0  0.5241413161155107  0.35065327023573895  0.8180799913577702  1.0000
  C   C5        1.0  0.10541541359837232  0.3370435264461308  0.7729124941475194  1.0000
  C   C6        1.0  0.39458672633967495  0.6629595766293548  0.2729131539319384  1.0000
  C   C7        1.0  0.8945799506515756  0.662962412053659  0.22708541750481  1.0000
  C   C8        1.0  0.605416107646654  0.33703496887275725  0.7270862795113118  1.0000
  C   C9        1.0  0.0430162763627706  0.1806763850310134  0.791731199575665  1.0000
  C   C10       1.0  0.45698433425369694  0.8193234787331676  0.29173047638736455  1.0000
  C   C11       1.0  0.9569787606891397  0.8193223228195805  0.20826671208746464  1.0000
  C   C12       1.0  0.5430208424185209  0.18067415719292515  0.7082689570481762  1.0000
  C   C13       1.0  0.9052880717819604  0.11726018891127409  0.7270762822250918  1.0000
  C   C14       1.0  0.5947160223998365  0.8827443932537375  0.22707487067079063  1.0000
  C   C15       1.0  0.09471123510974862  0.8827416019937713  0.2729208685350955  1.0000
  C   C16       1.0  0.40528718293782606  0.11725531645652146  0.772928367227266  1.0000
  C   C17       1.0  0.7054826009263523  0.30122313200333656  0.4454265977630741  1.0000
  C   C18       1.0  0.7945092393298978  0.6987756730575184  0.9454236126220297  1.0000
  C   C19       1.0  0.294513399694921  0.6987755721551567  0.5545728356837928  1.0000
  C   C20       1.0  0.20548860011441408  0.3012271565900662  0.0545735381387331  1.0000
  C   C21       1.0  0.6215360370816966  0.1678948322022507  0.38924488330475543  1.0000
  C   C22       1.0  0.8784620331074963  0.8321043842631679  0.8892367162539402  1.0000
  C   C23       1.0  0.37846381782312477  0.8321038571936937  0.6107591154919945  1.0000
  C   C24       1.0  0.12154489405382661  0.16790151000770953  0.11075967359716542  1.0000
  C   C25       1.0  0.4852205614326123  0.1798903753756989  0.35557251846059057  1.0000
  C   C26       1.0  0.014780918697631786  0.8201120898988066  0.8555707307515733  1.0000
  C   C27       1.0  0.5147769507954365  0.8201052236050757  0.6444291976662342  1.0000
  C   C28       1.0  0.9852245410071773  0.1798948431057994  0.1444279417777281  1.0000
  C   C29       1.0  0.5261755593126054  0.3358962553236822  0.3588189664524749  1.0000
  C   C30       1.0  0.9738227537173714  0.6641031958829585  0.8588178608683494  1.0000
  C   C31       1.0  0.4738204854680389  0.6641003823996312  0.6411827496749112  1.0000
  C   C32       1.0  0.026178480310036892  0.3358985876349436  0.1411830943518666  1.0000
  N   N1        1.0  0.9187411899947263  0.22925386186834373  0.6586969730005947  1.0000
  N   N2        1.0  0.5812605151153818  0.7707533253998093  0.15869591948999331  1.0000
  N   N3        1.0  0.08126326196313025  0.7707551412459283  0.34130246041970486  1.0000
  N   N4        1.0  0.4187412669585413  0.22924535664129317  0.841303513948809  1.0000
  N   N5        1.0  0.6465366477902776  0.38733268409924193  0.4297399964917973  1.0000
  N   N6        1.0  0.8534600913865873  0.612668289992463  0.9297378534242429  1.0000
  N   N7        1.0  0.35346036056884594  0.6126639499407673  0.5702609587417059  1.0000
  N   N8        1.0  0.14654059460645644  0.38733659501398426  0.0702615800072195  1.0000
  Cl  Cl1       1.0  0.8564584599559525  0.6419886369138085  0.5957729392572588  1.0000
  Cl  Cl2       1.0  0.6435357999674237  0.3580077018674785  0.09577213103491293  1.0000
  Cl  Cl3       1.0  0.1435404313795061  0.3580100561742441  0.40422953775574655  1.0000
  Cl  Cl4       1.0  0.3564563463581578  0.6419910170418106  0.9042257806322455  1.0000
  Cl  Cl5       1.0  0.6699046191805209  0.7034251251911102  0.4221069985669247  1.0000
  Cl  Cl6       1.0  0.8300945677787936  0.29657693179413513  0.9221050642448463  1.0000
  Cl  Cl7       1.0  0.33009477602082166  0.29657253283476587  0.5778970002319426  1.0000
  Cl  Cl8       1.0  0.16990189254292426  0.7034228037314918  0.0778951300924504  1.0000
  Cl  Cl9       1.0  0.9002246890622558  0.0323575652697983  0.421046951557507  1.0000
  Cl  Cl10      1.0  0.5997760179644659  0.9676413947161749  0.9210475473081345  1.0000
  Cl  Cl11      1.0  0.09977566972363405  0.9676400890786495  0.5789547645623899  1.0000
  Cl  Cl12      1.0  0.40022388110580215  0.032355228250466384  0.0789572123840472  1.0000
  O   O1        1.0  0.055503212710228074  0.4635876745863003  0.6356359548403463  1.0000
  O   O2        1.0  0.4445004385603966  0.5364195855346594  0.13563303231430274  1.0000
  O   O3        1.0  0.9444965097043364  0.5364172141034447  0.3643642394850063  1.0000
  O   O4        1.0  0.555503730377005  0.4635801205128445  0.8643641184420616  1.0000
  O   O5        1.0  0.8169406263372494  0.3242134346232177  0.4973892823448764  1.0000
  O   O6        1.0  0.6830569519698172  0.6757901116086342  0.9973828707176297  1.0000
  O   O7        1.0  0.1830615271001576  0.6757904116377629  0.5026109119785646  1.0000
  O   O8        1.0  0.3169418068966365  0.324214780793767  0.0026104755761764  1.0000
