data_image0
_chemical_formula_structural       Zn4H32C24N8O28
_chemical_formula_sum              "Zn4 H32 C24 N8 O28"
_cell_length_a       5.334581664858061
_cell_length_b       10.789298416141136
_cell_length_c       15.510227777011153
_cell_angle_alpha    90.00004178591128
_cell_angle_beta     89.99987354559215
_cell_angle_gamma    93.78016950330709

_space_group_name_H-M_alt    "P 1"
_space_group_IT_number       1

loop_
  _space_group_symop_operation_xyz
  'x, y, z'

loop_
  _atom_site_type_symbol
  _atom_site_label
  _atom_site_symmetry_multiplicity
  _atom_site_fract_x
  _atom_site_fract_y
  _atom_site_fract_z
  _atom_site_occupancy
  Zn  Zn1       1.0  0.5472771981327044  0.30473147147379354  0.3630641910678989  1.0000
  Zn  Zn2       1.0  0.9527171563730694  0.19527028806441388  0.8630656997348536  1.0000
  Zn  Zn3       1.0  0.45272607472760745  0.6952621171821888  0.6369352312458145  1.0000
  Zn  Zn4       1.0  0.047272837842712113  0.8047390023128004  0.1369363015314065  1.0000
  H   H1        1.0  0.35648150407153884  0.044268302215463996  0.7545684301421575  1.0000
  H   H2        1.0  0.14351882768723107  0.45573239124014003  0.2545695163495978  1.0000
  H   H3        1.0  0.6435129993552026  0.955730804317348  0.24543872900650848  1.0000
  H   H4        1.0  0.8564814051065854  0.5442676770489356  0.7454363533255799  1.0000
  H   H5        1.0  0.4136701770005972  0.0038595959651673006  0.5953199312644342  1.0000
  H   H6        1.0  0.0863312253344191  0.4961409824329195  0.09532043601499399  1.0000
  H   H7        1.0  0.586335932520619  0.9961256554625847  0.4046878726120866  1.0000
  H   H8        1.0  0.9136725102024532  0.5038739576454105  0.9046847889272414  1.0000
  H   H9        1.0  0.21255185293482268  0.13837509278576476  0.4371947030365604  1.0000
  H   H10       1.0  0.2874452735180882  0.3616247928316483  0.9371951328191271  1.0000
  H   H11       1.0  0.7874494423483257  0.8616175560849442  0.5628060087493123  1.0000
  H   H12       1.0  0.7125445173354522  0.6383826399457676  0.0628088026542528  1.0000
  H   H13       1.0  0.09041333066836191  0.17177875092210118  0.3461664343654576  1.0000
  H   H14       1.0  0.40958795617162747  0.3282192332976877  0.8461667585685502  1.0000
  H   H15       1.0  0.9095863937556103  0.8282166733636345  0.6538336326858952  1.0000
  H   H16       1.0  0.5904018346862473  0.6717881994792592  0.1538358874331109  1.0000
  H   H17       1.0  0.19911869320293366  0.41388786826439633  0.458473002312182  1.0000
  H   H18       1.0  0.3008875680005758  0.0861111588537824  0.958473268525374  1.0000
  H   H19       1.0  0.8008730192670301  0.5861028680764875  0.5415225515897077  1.0000
  H   H20       1.0  0.6991205751257327  0.9138926685738367  0.04152035116675279  1.0000
  H   H21       1.0  0.36563677940984013  0.5205948114531224  0.4085459175906719  1.0000
  H   H22       1.0  0.13436552818997427  0.9794028220361282  0.9085458773970314  1.0000
  H   H23       1.0  0.6343605607341518  0.47939595784540495  0.5914528599885144  1.0000
  H   H24       1.0  0.8656428182985677  0.020602862991289297  0.09144580808797538  1.0000
  H   H25       1.0  0.8857336371974965  0.5208086100165515  0.393727768413747  1.0000
  H   H26       1.0  0.6142569793695928  0.979181608301218  0.8937258081946381  1.0000
  H   H27       1.0  0.11426826816371262  0.47918961165448337  0.6062697196941826  1.0000
  H   H28       1.0  0.38573138801110224  0.020812821270837396  0.1062729693887547  1.0000
  H   H29       1.0  0.6922587931015871  0.55898597124677  0.3254773995521916  1.0000
  H   H30       1.0  0.8077398875350925  0.9410051705035584  0.8254791487417562  1.0000
  H   H31       1.0  0.3077368745075334  0.4410066446662952  0.6745200885563846  1.0000
  H   H32       1.0  0.19225826602320242  0.05899302919789311  0.1745222077826369  1.0000
  C   C1        1.0  0.9622427610584482  0.1953157558010901  0.5868208815434102  1.0000
  C   C2        1.0  0.537775000489667  0.3046942841929051  0.08682066909450008  1.0000
  C   C3        1.0  0.037772072203047506  0.8046806851688332  0.4131791855028482  1.0000
  C   C4        1.0  0.46223040760592243  0.6953188092683148  0.913178753223903  1.0000
  C   C5        1.0  0.9153932137386178  0.21063620114622952  0.6749582283692985  1.0000
  C   C6        1.0  0.5846142707812306  0.2893710611991551  0.17495861876032845  1.0000
  C   C7        1.0  0.08461056751104928  0.789362031511004  0.32504119394553743  1.0000
  C   C8        1.0  0.41538271862936693  0.7106336291183195  0.8250420930304398  1.0000
  C   C9        1.0  0.237255410738598  0.0843442606358238  0.7061204525118467  1.0000
  C   C10       1.0  0.2627513827921035  0.41566107477395775  0.20612207621924478  1.0000
  C   C11       1.0  0.762742742808861  0.9156539390667927  0.29388412769183947  1.0000
  C   C12       1.0  0.7372575737246551  0.5843501830591505  0.7938812145125309  1.0000
  C   C13       1.0  0.2734204528795416  0.0653533132343824  0.6178219244969725  1.0000
  C   C14       1.0  0.2265828774332661  0.4346491500073739  0.1178222950812895  1.0000
  C   C15       1.0  0.7265883459660998  0.9346393795801616  0.3821839451730966  1.0000
  C   C16       1.0  0.7734205530808255  0.5653630036690344  0.8821797061809846  1.0000
  C   C17       1.0  0.8441177572150876  0.2694753375578927  0.5174106161248133  1.0000
  C   C18       1.0  0.6558945382347546  0.23053183293002621  0.0174109229091997  1.0000
  C   C19       1.0  0.15589991274415382  0.7305127661798423  0.482586871974675  1.0000
  C   C20       1.0  0.34409358009474295  0.7694774464607617  0.9825884994142979  1.0000
  C   C21       1.0  0.7074028217473797  0.28567114809243316  0.7098024279992288  1.0000
  C   C22       1.0  0.7925948456923707  0.21433422690037673  0.2098039179299462  1.0000
  C   C23       1.0  0.29260689222943637  0.7143299039210901  0.2901944153708556  1.0000
  C   C24       1.0  0.20739027828559392  0.785664824702181  0.7901955043917537  1.0000
  N   N1        1.0  0.13852891606375553  0.12129893846329765  0.558442460417794  1.0000
  N   N2        1.0  0.36147461007981013  0.3787016242763883  0.0584433484851132  1.0000
  N   N3        1.0  0.8614756226091201  0.8786890883783159  0.4415614750449137  1.0000
  N   N4        1.0  0.6385229893980054  0.6213086388425777  0.9415573633069982  1.0000
  N   N5        1.0  0.057523242966382816  0.1557232694124409  0.7332877712158917  1.0000
  N   N6        1.0  0.4424814920353129  0.34428207463999166  0.23328858240338227  1.0000
  N   N7        1.0  0.9424735430884682  0.844279563304532  0.2667129405744291  1.0000
  N   N8        1.0  0.5575210233844461  0.6557217198334797  0.7667114846493135  1.0000
  O   O1        1.0  0.6799604391242299  0.21474401556818626  0.4695486928756267  1.0000
  O   O2        1.0  0.8200434941100526  0.2852662350336174  0.9695464778363031  1.0000
  O   O3        1.0  0.3200486647788595  0.7852514636445422  0.5304500847006821  1.0000
  O   O4        1.0  0.17994796930437224  0.714739351126461  0.030451010277396093  1.0000
  O   O5        1.0  0.9382382435759525  0.3793792536645384  0.5095545069383292  1.0000
  O   O6        1.0  0.5617777547977385  0.1206270043183082  0.009555463991844702  1.0000
  O   O7        1.0  0.0617683743584578  0.6206106417618997  0.49044620484487916  1.0000
  O   O8        1.0  0.43821796877645636  0.8793832478161007  0.9904478267443578  1.0000
  O   O9        1.0  0.5704340518781237  0.33877358664447144  0.6571166115330769  1.0000
  O   O10       1.0  0.9295758351924379  0.16123738899668894  0.1571166848483259  1.0000
  O   O11       1.0  0.4295681585123604  0.6612274214277818  0.34288216604723937  1.0000
  O   O12       1.0  0.07041978672988593  0.8387719343346732  0.8428788690573725  1.0000
  O   O13       1.0  0.6829760598978822  0.2868768145447119  0.7918708642797723  1.0000
  O   O14       1.0  0.8170335770251426  0.21312312383916066  0.2918710466786649  1.0000
  O   O15       1.0  0.31701165173313234  0.7131287496436798  0.20812468962768796  1.0000
  O   O16       1.0  0.1829628023247309  0.7868759936761193  0.7081277309031933  1.0000
  O   O17       1.0  0.25135966491830436  0.15688332679255984  0.3755308675559093  1.0000
  O   O18       1.0  0.24864183122984687  0.34311839384366033  0.8755300251328249  1.0000
  O   O19       1.0  0.748637980250635  0.8431102289076476  0.6244704889673683  1.0000
  O   O20       1.0  0.7513523214851646  0.6568946337057752  0.1244726208688576  1.0000
  O   O21       1.0  0.35533890329460865  0.4323151420353  0.4245488852904344  1.0000
  O   O22       1.0  0.14467321366257122  0.06768389352823329  0.9245466734129761  1.0000
  O   O23       1.0  0.64465093328257  0.567675583319854  0.5754460238762604  1.0000
  O   O24       1.0  0.8553522192645036  0.9323237479660946  0.07543663050035578  1.0000
  O   O25       1.0  0.8139209404353097  0.4957636983597027  0.3374249387672207  1.0000
  O   O26       1.0  0.6860742422013005  0.004226908035938899  0.8374245961640056  1.0000
  O   O27       1.0  0.1860728512723426  0.5042289065685707  0.6625744835495908  1.0000
  O   O28       1.0  0.3139180803207111  0.9957694011080703  0.16257547089022492  1.0000
