data_image0
_chemical_formula_structural       Cu2H20C16O20
_chemical_formula_sum              "Cu2 H20 C16 O20"
_cell_length_a       7.513002899596081
_cell_length_b       8.265369769762918
_cell_length_c       9.78271621664339
_cell_angle_alpha    90.00033377919544
_cell_angle_beta     89.99984951671627
_cell_angle_gamma    83.11413242235221

_space_group_name_H-M_alt    "P 1"
_space_group_IT_number       1

loop_
  _space_group_symop_operation_xyz
  'x, y, z'

loop_
  _atom_site_type_symbol
  _atom_site_label
  _atom_site_symmetry_multiplicity
  _atom_site_fract_x
  _atom_site_fract_y
  _atom_site_fract_z
  _atom_site_occupancy
  Cu  Cu1       1.0  0.23816554696370676  0.2247200770467472  0.25687875978326247  1.0000
  Cu  Cu2       1.0  0.7618365700013143  0.775272657082951  0.7568774449064718  1.0000
  H   H1        1.0  0.4410731956718906  0.4114537057819874  0.21763949405465147  1.0000
  H   H2        1.0  0.5589266084963499  0.5885456584302986  0.7176385066340598  1.0000
  H   H3        1.0  0.924168110682821  0.32178919970335323  0.8941356851379607  1.0000
  H   H4        1.0  0.07582340730989048  0.6782144612270854  0.3941240360296731  1.0000
  H   H5        1.0  0.971822070474275  0.36784062483930313  0.3861725310749903  1.0000
  H   H6        1.0  0.028180562936576295  0.6321552414586338  0.8861682982759759  1.0000
  H   H7        1.0  0.5505758367221886  0.061279779418406115  0.6361793283087775  1.0000
  H   H8        1.0  0.44942679267258967  0.9387142330882197  0.136186862826861  1.0000
  H   H9        1.0  0.4050329098352136  0.5029302808120731  0.007175077358269297  1.0000
  H   H10       1.0  0.5949576763619293  0.4970820576445901  0.5071666611175087  1.0000
  H   H11       1.0  0.5231477425676374  0.14541344559111746  0.9404256305685832  1.0000
  H   H12       1.0  0.47684819501498776  0.8545952394139961  0.4404331174154378  1.0000
  H   H13       1.0  0.423663162074874  0.2805748751716806  0.8136706974290033  1.0000
  H   H14       1.0  0.576331939433139  0.7194378621388824  0.3136705258980327  1.0000
  H   H15       1.0  0.06624216150558482  0.32357421039262135  0.5905931139074951  1.0000
  H   H16       1.0  0.9337636518528568  0.6764250581322672  0.09058981286005967  1.0000
  H   H17       1.0  0.0022526096424044955  0.9711181698801995  0.5214755615725153  1.0000
  H   H18       1.0  0.9977664311418055  0.028878070531412395  0.021469684536384592  1.0000
  H   H19       1.0  0.0415189648657943  0.0425728754992178  0.6862654067171048  1.0000
  H   H20       1.0  0.9584785096666621  0.9574303764361504  0.18625803932211935  1.0000
  C   C1        1.0  0.18433787490944553  0.3683283358540308  0.004968738394701698  1.0000
  C   C2        1.0  0.8156517809864711  0.6316744798590791  0.5049611372689069  1.0000
  C   C3        1.0  0.38576861685487535  0.37392190584630913  0.01859055838708199  1.0000
  C   C4        1.0  0.6142286014229512  0.6260870315972367  0.5185863512901604  1.0000
  C   C5        1.0  0.4978096960015322  0.2738782122074923  0.91084835051965  1.0000
  C   C6        1.0  0.5021908222185232  0.726127700711281  0.4108509587513323  1.0000
  C   C7        1.0  0.668345631212766  0.3489298791875228  0.8875256537939716  1.0000
  C   C8        1.0  0.3316540668135985  0.6510722109889002  0.38752812362896083  1.0000
  C   C9        1.0  0.2876630456882125  0.15182364271092297  0.5269487155499135  1.0000
  C   C10       1.0  0.7123399337163151  0.8481711906775543  0.026949521199824692  1.0000
  C   C11       1.0  0.08757889502692962  0.2126688821375851  0.527654497765752  1.0000
  C   C12       1.0  0.9124305845714886  0.7873302635320202  0.027650301411604492  1.0000
  C   C13       1.0  0.9843982665007829  0.0806746348166101  0.5859641854007618  1.0000
  C   C14       1.0  0.015607565164039293  0.9193260327368049  0.08596159869402697  1.0000
  C   C15       1.0  0.7877353024624584  0.1379119106568751  0.6039452748584394  1.0000
  C   C16       1.0  0.2122611789634307  0.8620814766236221  0.103958246964865  1.0000
  O   O1        1.0  0.09951153797675973  0.3156707693917794  0.10626236040569376  1.0000
  O   O2        1.0  0.9004902701438127  0.6843221122573836  0.606263599511706  1.0000
  O   O3        1.0  0.10425182502586242  0.41846771990591947  0.8960409693582247  1.0000
  O   O4        1.0  0.8957436855143329  0.5815355548337209  0.3960346654319834  1.0000
  O   O5        1.0  0.44733226279616645  0.31766733264512226  0.15279166937573044  1.0000
  O   O6        1.0  0.5526685076319213  0.6823334058066876  0.6527933123378984  1.0000
  O   O7        1.0  0.6645424107381571  0.49530576425215156  0.8582053819205482  1.0000
  O   O8        1.0  0.33545942090850644  0.504687678678792  0.3582153953228157  1.0000
  O   O9        1.0  0.8204988325016986  0.25229803409406765  0.9031845856922301  1.0000
  O   O10       1.0  0.179495331564766  0.7477026304370753  0.4031713365332194  1.0000
  O   O11       1.0  0.37164108840892845  0.1398937206319886  0.41250409453742504  1.0000
  O   O12       1.0  0.6283610299662002  0.8601047373363498  0.9125020671362022  1.0000
  O   O13       1.0  0.3598006640955589  0.1115028698884331  0.6399474797473345  1.0000
  O   O14       1.0  0.640205884266699  0.8884918966357913  0.13994525091676724  1.0000
  O   O15       1.0  0.028118807395891593  0.2521261630962995  0.38901768986347196  1.0000
  O   O16       1.0  0.971889097831408  0.7478703904567326  0.8890168547195427  1.0000
  O   O17       1.0  0.7231858207060001  0.28110371723999344  0.5938719252102158  1.0000
  O   O18       1.0  0.2768039149786858  0.7188954458298014  0.09388995140939467  1.0000
  O   O19       1.0  0.690007521614774  0.017554235424469825  0.6338248320700755  1.0000
  O   O20       1.0  0.3099897344497721  0.9824414988174366  0.13382692200642046  1.0000
