data_image0
_chemical_formula_structural       Zn4H16C20N8O16
_chemical_formula_sum              "Zn4 H16 C20 N8 O16"
_cell_length_a       8.265863536818783
_cell_length_b       8.430466764959371
_cell_length_c       9.419445642000674
_cell_angle_alpha    89.99997773660445
_cell_angle_beta     90.0000388699441
_cell_angle_gamma    93.77737178313143

_space_group_name_H-M_alt    "P 1"
_space_group_IT_number       1

loop_
  _space_group_symop_operation_xyz
  'x, y, z'

loop_
  _atom_site_type_symbol
  _atom_site_label
  _atom_site_symmetry_multiplicity
  _atom_site_fract_x
  _atom_site_fract_y
  _atom_site_fract_z
  _atom_site_occupancy
  Zn  Zn1       1.0  0.12071901016280151  0.37584896585297395  0.2578739566269731  1.0000
  Zn  Zn2       1.0  0.37928254381488113  0.6241534382916639  0.7578747522820632  1.0000
  Zn  Zn3       1.0  0.8792801757595683  0.6241511796866702  0.7421255670177584  1.0000
  Zn  Zn4       1.0  0.6207192088904563  0.37584909789272564  0.2421247713630165  1.0000
  H   H1        1.0  0.0936281977093714  0.7745631856323172  0.2482968817277039  1.0000
  H   H2        1.0  0.40637448617444966  0.2254380400092728  0.7482967721120273  1.0000
  H   H3        1.0  0.9063744725240215  0.22543460218341949  0.7517026419184842  1.0000
  H   H4        1.0  0.5936259831394041  0.7745633008527405  0.251702751532882  1.0000
  H   H5        1.0  0.24264196399588664  0.1677908993102761  0.985330852467683  1.0000
  H   H6        1.0  0.2573597595489758  0.8322114181269883  0.4853310395372146  1.0000
  H   H7        1.0  0.757356011708076  0.8322092396449959  0.014669732810297395  1.0000
  H   H8        1.0  0.7426431302020832  0.1677899359035635  0.514667422474808  1.0000
  H   H9        1.0  0.2195386969091615  0.8367959458568209  0.0006740557385782998  1.0000
  H   H10       1.0  0.2804627385002547  0.16320774507184416  0.5006738928542092  1.0000
  H   H11       1.0  0.7804629826234903  0.1632054015893658  0.9993254679066933  1.0000
  H   H12       1.0  0.7195378039866756  0.8367947845281736  0.49932669242411254  1.0000
  H   H13       1.0  0.0269226113151859  0.0280937823167662  0.37510488020672017  1.0000
  H   H14       1.0  0.4730801671033547  0.9719073949849459  0.8751056095695587  1.0000
  H   H15       1.0  0.9730799125732331  0.9719016280223514  0.6248957050734416  1.0000
  H   H16       1.0  0.5269191651647772  0.028095128030905404  0.12489497570840766  1.0000
  C   C1        1.0  0.19469932731137618  0.08953116527973749  0.06835544505563007  1.0000
  C   C2        1.0  0.3053032224277388  0.9104701289561064  0.5683560958829544  1.0000
  C   C3        1.0  0.805302205876302  0.9104678046898301  0.9316451402236151  1.0000
  C   C4        1.0  0.6946985302775985  0.0895324072282833  0.4316434277621254  1.0000
  C   C5        1.0  0.1838823027972296  0.9263275639033566  0.07460619335826378  1.0000
  C   C6        1.0  0.3161203247737774  0.0736749166882333  0.5746050216028775  1.0000
  C   C7        1.0  0.8161192303908394  0.07367140606601198  0.9253954535545785  1.0000
  C   C8        1.0  0.6838814279315599  0.9263276194961564  0.4253945020422022  1.0000
  C   C9        1.0  0.08379670846021271  0.022800200784672604  0.27189924918464914  1.0000
  C   C10       1.0  0.4162072764107804  0.977202211181826  0.7718999427410009  1.0000
  C   C11       1.0  0.9162047515543819  0.9771975804468978  0.7281002744611766  1.0000
  C   C12       1.0  0.583794403122269  0.022799136264154606  0.22810064253786771  1.0000
  C   C13       1.0  0.0910447467404296  0.5228193384673646  0.9815216034491524  1.0000
  C   C14       1.0  0.4089528310979632  0.47717463950283445  0.4815177592980076  1.0000
  C   C15       1.0  0.9089527899286055  0.4771736680580716  0.018482166730748893  1.0000
  C   C16       1.0  0.5910472723512685  0.522820757668761  0.5184785794470342  1.0000
  C   C17       1.0  0.9855464579301768  0.41485304773073045  0.5302957597740201  1.0000
  C   C18       1.0  0.5144561067695008  0.5851425753979387  0.030299073638417398  1.0000
  C   C19       1.0  0.014457276175456012  0.5851423691933705  0.4697005789721018  1.0000
  C   C20       1.0  0.485545206900909  0.4148528283566151  0.9697036349085901  1.0000
  N   N1        1.0  0.1330571461201018  0.14851652844302524  0.19280541521280264  1.0000
  N   N2        1.0  0.3669454963955515  0.8514847183519831  0.6928061235713512  1.0000
  N   N3        1.0  0.8669431768483733  0.8514824349425824  0.8071941084324761  1.0000
  N   N4        1.0  0.6330561831371001  0.14851662909420327  0.30719340007391327  1.0000
  N   N5        1.0  0.1134405376478114  0.8871105357532086  0.20371674966413875  1.0000
  N   N6        1.0  0.3865622593472367  0.11289308435891598  0.7037166677961861  1.0000
  N   N7        1.0  0.8865610687125525  0.1128896229545688  0.7962838356149146  1.0000
  N   N8        1.0  0.6134382831396933  0.8871094452411088  0.2962839174821354  1.0000
  O   O1        1.0  0.19581599747879616  0.49197099470745803  0.07373998026356787  1.0000
  O   O2        1.0  0.3041770208710659  0.5080326222780158  0.573745018458652  1.0000
  O   O3        1.0  0.8041760003014814  0.5080303000663945  0.9262542352108123  1.0000
  O   O4        1.0  0.695818753914942  0.4919710697227301  0.42625981335244484  1.0000
  O   O5        1.0  0.1205403134864369  0.5888043668242915  0.8622077850915202  1.0000
  O   O6        1.0  0.3794565505710493  0.4111991599482679  0.3622145628712515  1.0000
  O   O7        1.0  0.8794589456066361  0.4111969674545719  0.13778643038502025  1.0000
  O   O8        1.0  0.6205439919174722  0.5888033696509396  0.6377902689414723  1.0000
  O   O9        1.0  0.020388548307472804  0.299775750246134  0.45316356430262755  1.0000
  O   O10       1.0  0.4796096669441496  0.7002289371782382  0.953159084922255  1.0000
  O   O11       1.0  0.9796096469161314  0.7002279549229514  0.5468412675091938  1.0000
  O   O12       1.0  0.5203898116673713  0.2997759633150351  0.04683619218732099  1.0000
  O   O13       1.0  0.9265373957188245  0.40234555844686076  0.6549272826317319  1.0000
  O   O14       1.0  0.5734581469221426  0.5976523551447884  0.1549221342466112  1.0000
  O   O15       1.0  0.0734580863764407  0.5976533786010664  0.34507754918011807  1.0000
  O   O16       1.0  0.4265374083418437  0.4023477706433595  0.8450720812290411  1.0000
