data_image0
_chemical_formula_structural       Cd4H40C52N8O28
_chemical_formula_sum              "Cd4 H40 C52 N8 O28"
_cell_length_a       8.010691766
_cell_length_b       12.745607504
_cell_length_c       18.3006
_cell_angle_alpha    90.0
_cell_angle_beta     90.0
_cell_angle_gamma    90.0

_space_group_name_H-M_alt    "P 1"
_space_group_IT_number       1

loop_
  _space_group_symop_operation_xyz
  'x, y, z'

loop_
  _atom_site_type_symbol
  _atom_site_label
  _atom_site_symmetry_multiplicity
  _atom_site_fract_x
  _atom_site_fract_y
  _atom_site_fract_z
  _atom_site_occupancy
  Cd  Cd1       1.0  0.10018984919710053  0.1617780870274643  0.1082090204692747  1.0000
  Cd  Cd2       1.0  0.3998106647410324  0.8382213242206831  0.6082090204692747  1.0000
  Cd  Cd3       1.0  0.6001903631352405  0.3382216185966129  0.8917909795307254  1.0000
  Cd  Cd4       1.0  0.8998086820158875  0.6617793618195833  0.3917904331005531  1.0000
  H   H1        1.0  0.2966123362884616  0.6636545176324802  0.3875654350130588  1.0000
  H   H2        1.0  0.20338443265475095  0.3363456781996916  0.8875659814432312  1.0000
  H   H3        1.0  0.7966153468898796  0.8363461684077933  0.6124340185567689  1.0000
  H   H4        1.0  0.703384946592891  0.1636540274243785  0.1124345649869412  1.0000
  H   H5        1.0  0.499146655095501  0.36171598713934827  0.44147623575183553  1.0000
  H   H6        1.0  0.0008526105109894002  0.6382857778608724  0.94147732861218  1.0000
  H   H7        1.0  0.9991471690336411  0.1382860722367951  0.5585232178179922  1.0000
  H   H8        1.0  0.5008543727807719  0.8617141235953767  0.05852431067833659  1.0000
  H   H9        1.0  0.9661737370609984  0.4187113088430792  0.4221648470541979  1.0000
  H   H10       1.0  0.5338253080901296  0.5812888869890926  0.9221664863447073  1.0000
  H   H11       1.0  0.4661744714545009  0.0812883967809981  0.5778346065156299  1.0000
  H   H12       1.0  0.0338272908152746  0.9187117990511737  0.0778356993759743  1.0000
  H   H13       1.0  0.2534887197406093  0.130488091640828  0.4870610799645902  1.0000
  H   H14       1.0  0.2465105458658812  0.8695128887753611  0.9870616263947625  1.0000
  H   H15       1.0  0.7534892336787493  0.369513183151291  0.5129389200354098  1.0000
  H   H16       1.0  0.7465135564673062  0.6304877972649052  0.0129383736052375  1.0000
  H   H17       1.0  0.414771919461721  0.2290687202696091  0.4943985443100233  1.0000
  H   H18       1.0  0.0852273461447766  0.7709322601465871  0.9943990907401953  1.0000
  H   H19       1.0  0.9147711850682116  0.2709309853544681  0.5056014556899768  1.0000
  H   H20       1.0  0.5852303567461945  0.7290699950617281  0.0056014556899768  1.0000
  H   H21       1.0  0.2921121007216669  0.2188942346706071  0.2572921106411812  1.0000
  H   H22       1.0  0.2078871648848306  0.7811059611615647  0.7572921106411812  1.0000
  H   H23       1.0  0.7921138629914426  0.2811062555374946  0.7427078893588188  1.0000
  H   H24       1.0  0.7078864304913282  0.7188931557106599  0.2427073429286466  1.0000
  H   H25       1.0  0.0068308707410552  0.9515191799366107  0.21951793930253416  1.0000
  H   H26       1.0  0.4931696431970778  0.0484802313115367  0.7195173928723619  1.0000
  H   H27       1.0  0.5068301363475527  0.5484807215196383  0.7804826071276381  1.0000
  H   H28       1.0  0.9931689088035756  0.45151868972851616  0.2804826071276381  1.0000
  H   H29       1.0  0.2556445884850974  0.9840315572297271  0.4269461110564663  1.0000
  H   H30       1.0  0.2443546771214002  0.0159678540184274  0.9269461110564662  1.0000
  H   H31       1.0  0.7556451024232302  0.5159683442265219  0.5730538889435337  1.0000
  H   H32       1.0  0.7443551910595403  0.4840310670216255  0.0730538889435337  1.0000
  H   H33       1.0  0.0157127503687278  0.23748652224306  0.9585144749352494  1.0000
  H   H34       1.0  0.48428651523776284  0.7625136735891118  0.4585139285050773  1.0000
  H   H35       1.0  0.5157120159752253  0.2625139679650346  0.0414855250647506  1.0000
  H   H36       1.0  0.9842870291759029  0.7374870124511546  0.5414855250647506  1.0000
  H   H37       1.0  0.1954924800186078  0.1852583330577957  0.9530037266537689  1.0000
  H   H38       1.0  0.3045067855878827  0.8147418627743761  0.4530042730839412  1.0000
  H   H39       1.0  0.6954904972934628  0.31474215715029885  0.0469957269160588  1.0000
  H   H40       1.0  0.804507299526023  0.685258038681873  0.5469957269160588  1.0000
  C   C1        1.0  0.280638684606707  0.5816089972701235  0.4019933772663222  1.0000
  C   C2        1.0  0.21936058099979056  0.4183904139780239  0.9019939236964943  1.0000
  C   C3        1.0  0.7806404468764825  0.9183916887701429  0.5980060763035127  1.0000
  C   C4        1.0  0.719359846606288  0.0816085070620289  0.09800716916385  1.0000
  C   C5        1.0  0.4175881556444381  0.5176818757308581  0.4170404249041013  1.0000
  C   C6        1.0  0.08240986163041703  0.4823183201013137  0.9170409713342735  1.0000
  C   C7        1.0  0.9175899179142137  0.9823195948934326  0.5829590286657265  1.0000
  C   C8        1.0  0.5824116239001995  0.0176798163547147  0.0829606679562431  1.0000
  C   C9        1.0  0.5915993447799792  0.5616750710198204  0.4158962001245854  1.0000
  C   C10       1.0  0.9083997003711417  0.4383259093963687  0.915897839415102  1.0000
  C   C11       1.0  0.09160257583676673  0.9383271841884876  0.5841027070150702  1.0000
  C   C12       1.0  0.40839793810136643  0.06167222705965969  0.0841032534452424  1.0000
  C   C13       1.0  0.3910411349610783  0.4117810781755864  0.4327666852452907  1.0000
  C   C14       1.0  0.1089581306454193  0.5882199022406027  0.932767778105635  1.0000
  C   C15       1.0  0.8910428972308537  0.0882201966165326  0.5672322218943648  1.0000
  C   C16       1.0  0.6089573962519097  0.9117792146316219  0.0672333147547093  1.0000
  C   C17       1.0  0.22719511038043555  0.3747691115155476  0.4357753297706068  1.0000
  C   C18       1.0  0.2728041552260621  0.6252310843166242  0.9357764226309513  1.0000
  C   C19       1.0  0.7271956243185687  0.125231378692547  0.5642241237992209  1.0000
  C   C20       1.0  0.7728059174958375  0.8747680325556003  0.0642252166595654  1.0000
  C   C21       1.0  0.0960453881480703  0.4442714871160831  0.4210140651126224  1.0000
  C   C22       1.0  0.4039526291267849  0.5557287087160887  0.9210151579729597  1.0000
  C   C23       1.0  0.5960471504178457  0.055728218507994094  0.5789853884572125  1.0000
  C   C24       1.0  0.9039543913965675  0.9442711927401604  0.0789864813175498  1.0000
  C   C25       1.0  0.3124786314490677  0.1984942655111581  0.4608247817011489  1.0000
  C   C26       1.0  0.1875218824890652  0.8015059303210137  0.9608247817011488  1.0000
  C   C27       1.0  0.8124778970555653  0.3015062246969364  0.5391752182988512  1.0000
  C   C28       1.0  0.6875236447588478  0.6984939711352354  0.039174671868679  1.0000
  C   C29       1.0  0.2839242934865425  0.1101610887954436  0.3483153557806844  1.0000
  C   C30       1.0  0.21607622045159766  0.8898383224527108  0.8483153557806844  1.0000
  C   C31       1.0  0.7839248074246754  0.3898386168286336  0.6516846442193156  1.0000
  C   C32       1.0  0.7160767343897307  0.6101607944195138  0.1516840977891434  1.0000
  C   C33       1.0  0.2462134429352574  0.1437969904082479  0.2775908986590636  1.0000
  C   C34       1.0  0.2537858226712331  0.8562032054239239  0.7775908986590636  1.0000
  C   C35       1.0  0.7462139568733974  0.3562034997998467  0.7224091013409364  1.0000
  C   C36       1.0  0.7537850882777308  0.6437959114483007  0.22240855491077127  1.0000
  C   C37       1.0  0.0875816996202232  0.9951804961842184  0.2565254691103007  1.0000
  C   C38       1.0  0.4124175659862743  0.0048196996479533  0.7565254691103007  1.0000
  C   C39       1.0  0.5875822135583562  0.5048201898560549  0.7434745308896993  1.0000
  C   C40       1.0  0.9124180799244073  0.4951792213920996  0.2434745308896993  1.0000
  C   C41       1.0  0.12198946464869213  0.95540208626214  0.326272909084949  1.0000
  C   C42       1.0  0.3780110492894481  0.0445981095700319  0.8262734555151212  1.0000
  C   C43       1.0  0.6219887302551825  0.5445978151941091  0.6737259980547066  1.0000
  C   C44       1.0  0.8780103148959455  0.455400811470021  0.1737265444848788  1.0000
  C   C45       1.0  0.050126757055402  0.8527949724317807  0.3515229008884972  1.0000
  C   C46       1.0  0.4498750052143735  0.1472044388163667  0.8515239937488416  1.0000
  C   C47       1.0  0.5501260226618996  0.6472049290244613  0.6484760062511583  1.0000
  C   C48       1.0  0.9498730224892284  0.3527936976396617  0.1484765526813305  1.0000
  C   C49       1.0  0.2244512774329124  0.0136980524424004  0.3727604559413322  1.0000
  C   C50       1.0  0.2755504848368702  0.9863013588057541  0.8727604559413322  1.0000
  C   C51       1.0  0.7244517913710453  0.4863016531816768  0.62724009048884  1.0000
  C   C52       1.0  0.7755509987750031  0.5136977580664706  0.1272395440586678  1.0000
  N   N1        1.0  0.1236584840530739  0.5451344706652463  0.4042703517917444  1.0000
  N   N2        1.0  0.3763407815534237  0.4548649405829082  0.9042714446520889  1.0000
  N   N3        1.0  0.6236602463228493  0.9548654307910027  0.5957291017780832  1.0000
  N   N4        1.0  0.8763400471599141  0.0451339804571447  0.0957296482082555  1.0000
  N   N5        1.0  0.150496366008845  0.0864164379496515  0.232359594767388  1.0000
  N   N6        1.0  0.3495028995976455  0.9135837578825202  0.7323595947673879  1.0000
  N   N7        1.0  0.650496879946985  0.4135840522584502  0.767640405232612  1.0000
  N   N8        1.0  0.8495034135357855  0.5864153589897043  0.2676398588024469  1.0000
  O   O1        1.0  0.7132517598855301  0.4997039174477322  0.4244374501382495  1.0000
  O   O2        1.0  0.7867485335972406  0.500297062968464  0.924439089428759  1.0000
  O   O3        1.0  0.2132537426106751  0.0002973573443867  0.5755609105712409  1.0000
  O   O4        1.0  0.2867455229958226  0.9997020539037607  0.0755625498617505  1.0000
  O   O5        1.0  0.6076915879676577  0.6609586869324318  0.4055205840245648  1.0000
  O   O6        1.0  0.8923062088518279  0.3390422934837645  0.9055211304547369  1.0000
  O   O7        1.0  0.1076935706928026  0.8390435682758834  0.594478869545263  1.0000
  O   O8        1.0  0.3923069432453304  0.1609566275562884  0.094478869545263  1.0000
  O   O9        1.0  0.1816422404586646  0.2740104776413332  0.45326164169480876  1.0000
  O   O10       1.0  0.3183570251478329  0.7259881490227968  0.9532632809853254  1.0000
  O   O11       1.0  0.6816415060651551  0.225989227982744  0.5467383583051912  1.0000
  O   O12       1.0  0.8183600357492509  0.7740101832654105  0.0467383583051912  1.0000
  O   O13       1.0  0.3830368324772239  0.1736763037230915  0.3918920691124868  1.0000
  O   O14       1.0  0.1169649297925588  0.826321538357014  0.8918926155426591  1.0000
  O   O15       1.0  0.8830360980837142  0.3263234019009857  0.6081079308875132  1.0000
  O   O16       1.0  0.6169654437306917  0.6736760093471617  0.1081068380271688  1.0000
  O   O17       1.0  0.9225657678363319  0.8165197301685225  0.3189359911696883  1.0000
  O   O18       1.0  0.577435773978074  0.18348046566364928  0.8189365375998605  1.0000
  O   O19       1.0  0.422565253898199  0.6834801712877194  0.6810629159699673  1.0000
  O   O20       1.0  0.0774340117082986  0.3165184553764036  0.1810640088303117  1.0000
  O   O21       1.0  0.1190421536436403  0.8060455334730676  0.4054386194988169  1.0000
  O   O22       1.0  0.3809596086261422  0.1939546623591042  0.9054397123591542  1.0000
  O   O23       1.0  0.6190414192501308  0.6939543679831813  0.5945608340710109  1.0000
  O   O24       1.0  0.8809576259009901  0.3060434740969242  0.0945613805011831  1.0000
  O   O25       1.0  0.0877926676675997  0.1827209883302245  0.980011584319641  1.0000
  O   O26       1.0  0.4122065979388978  0.8172784229179227  0.48001158431964097  1.0000
  O   O27       1.0  0.5877906849424548  0.3172802864618944  0.0199889621105314  1.0000
  O   O28       1.0  0.9122071118770307  0.6827214785383191  0.5199884156803591  1.0000
