data_image0
_chemical_formula_structural       Cd12H24C12N72Cl8
_chemical_formula_sum              "Cd12 H24 C12 N72 Cl8"
_cell_length_a       6.950442188
_cell_length_b       13.576624233
_cell_length_c       16.836
_cell_angle_alpha    90.0
_cell_angle_beta     90.0
_cell_angle_gamma    90.0

_space_group_name_H-M_alt    "P 1"
_space_group_IT_number       1

loop_
  _space_group_symop_operation_xyz
  'x, y, z'

loop_
  _atom_site_type_symbol
  _atom_site_label
  _atom_site_symmetry_multiplicity
  _atom_site_fract_x
  _atom_site_fract_y
  _atom_site_fract_z
  _atom_site_occupancy
  Cd  Cd1       1.0  0.391685870677442  0.7981984191371722  0.613762770254219  1.0000
  Cd  Cd2       1.0  0.8916828357626229  0.20180053251680619  0.3862360418151596  1.0000
  Cd  Cd3       1.0  0.8916828357626229  0.7018033228643432  0.1137639581848404  1.0000
  Cd  Cd4       1.0  0.3916844319200621  0.2981971019098778  0.8862366357804705  1.0000
  Cd  Cd5       1.0  0.39299657865164045  0.5299866797896939  0.728134948918985  1.0000
  Cd  Cd6       1.0  0.8929949824942012  0.470009325623792  0.2718656450463328  1.0000
  Cd  Cd7       1.0  0.8929949824942012  0.9700143256516967  0.2281343549536672  1.0000
  Cd  Cd8       1.0  0.3929922623794937  0.029988308802891998  0.7718632691850831  1.0000
  Cd  Cd9       1.0  0.6573826350053835  0.0719015259792855  0.5658725350439511  1.0000
  Cd  Cd10      1.0  0.1573885474349623  0.9280966891145752  0.4341298408172989  1.0000
  Cd  Cd11      1.0  0.1573871086775824  0.4281020009283765  0.0658719410786404  1.0000
  Cd  Cd12      1.0  0.6573955838218097  0.5718976872857198  0.9341280589213599  1.0000
  H   H1        1.0  0.7725566021210355  0.7371663108767164  0.7477078878593488  1.0000
  H   H2        1.0  0.27255532076371475  0.2628333773373868  0.2522933000712726  1.0000
  H   H3        1.0  0.2725567595210947  0.7628317483241956  0.2477078878593488  1.0000
  H   H4        1.0  0.7725566021210355  0.23716867645003245  0.7522915181753405  1.0000
  H   H5        1.0  0.0180276299853759  0.7401206535256362  0.7475059396531236  1.0000
  H   H6        1.0  0.5180231563131769  0.2598775615682172  0.2524940603468764  1.0000
  H   H7        1.0  0.5180274725853167  0.7598781422353866  0.2475047517225022  1.0000
  H   H8        1.0  0.0180276299853759  0.2401230190989523  0.7524916844856266  1.0000
  H   H9        1.0  0.0180189974410894  0.4532960398978432  0.5949691138037566  1.0000
  H   H10       1.0  0.5180174012836503  0.5467014386358926  0.405032074126872  1.0000
  H   H11       1.0  0.5180174012836503  0.046705277329451185  0.09496614397718872  1.0000
  H   H12       1.0  0.0180204361984693  0.9532973571251375  0.905032668092183  1.0000
  H   H13       1.0  0.7762311884724082  0.4532201742052848  0.5921127346163004  1.0000
  H   H14       1.0  0.2762313458724677  0.5467802505689362  0.40788785934901745  1.0000
  H   H15       1.0  0.2762342233872275  0.0467818795821273  0.0921115466856719  1.0000
  H   H16       1.0  0.7762340659871683  0.9532192817522187  0.9078884533143281  1.0000
  H   H17       1.0  0.46004986639851336  0.9283537485971181  0.9516227132335474  1.0000
  H   H18       1.0  0.9600525865132212  0.071647412737228  0.0483772867664527  1.0000
  H   H19       1.0  0.9600525865132212  0.571645783724037  0.451623307198858  1.0000
  H   H20       1.0  0.46005130515589326  0.4283531679299414  0.5483760988358313  1.0000
  H   H21       1.0  0.567784019096429  0.8249620677263962  0.9874602043240658  1.0000
  H   H22       1.0  0.06778417649648108  0.1750413032883102  0.0125409836065558  1.0000
  H   H23       1.0  0.0677827377391012  0.6750382011548766  0.48746139225469426  1.0000
  H   H24       1.0  0.567784019096429  0.3249629601794695  0.512540389641245  1.0000
  C   C1        1.0  0.894246701415767  0.5115314293754594  0.6913399857448326  1.0000
  C   C2        1.0  0.3942439813010664  0.4884667857183941  0.30866179615110684  1.0000
  C   C3        1.0  0.3942482975732062  0.9884695760659312  0.1913387978142111  1.0000
  C   C4        1.0  0.8942452626583871  0.011532321828532598  0.8086606082204781  1.0000
  C   C5        1.0  0.8898858277936056  0.7967363472952085  0.6486457590876711  1.0000
  C   C6        1.0  0.389883107678905  0.2032633409188946  0.3513566167735789  1.0000
  C   C7        1.0  0.389883107678905  0.7032624484658212  0.1486427892611104  1.0000
  C   C8        1.0  0.8898872665509925  0.2967357666280321  0.8513536469470184  1.0000
  C   C9        1.0  0.4858626125731007  0.816216889399122  0.8718169398907138  1.0000
  C   C10       1.0  0.9858610164156687  0.1837850084953416  0.12818424803991493  1.0000
  C   C11       1.0  0.9858624551730485  0.6837841160422753  0.3718169398907136  1.0000
  C   C12       1.0  0.48585541878620114  0.3162163087319526  0.6281830601092864  1.0000
  N   N1        1.0  0.0535634985415427  0.5299807873087232  0.7356361368496067  1.0000
  N   N2        1.0  0.5535619023841035  0.47001816434525506  0.2643656450463325  1.0000
  N   N3        1.0  0.5535676574136232  0.9700202181326745  0.23563494891898534  1.0000
  N   N4        1.0  0.0535620597841628  0.029981679761789292  0.764362675219765  1.0000
  N   N5        1.0  0.7353589687896827  0.523503477596762  0.7366138037538619  1.0000
  N   N6        1.0  0.23535624867498228  0.4764954740572164  0.2633879781420774  1.0000
  N   N7        1.0  0.235360564947122  0.9764975278446284  0.2366126158232333  1.0000
  N   N8        1.0  0.735354652517543  0.0235043700498352  0.7633873841767667  1.0000
  N   N9        1.0  0.045592782650160785  0.8203961315307635  0.6044155381325709  1.0000
  N   N10       1.0  0.5455897477353417  0.1796028201232147  0.3955832739368007  1.0000
  N   N11       1.0  0.5455911864927216  0.6796026642302662  0.10441553813257093  1.0000
  N   N12       1.0  0.04559566016492769  0.3203962874237121  0.8955832739368006  1.0000
  N   N13       1.0  0.39064852660565913  0.7840579379170052  0.7537580185317196  1.0000
  N   N14       1.0  0.8906469304482199  0.2159410137369733  0.2462425754335982  1.0000
  N   N15       1.0  0.8906483692055998  0.7159415944041498  0.2537586124970304  1.0000
  N   N16       1.0  0.3906398940613726  0.2840580938099535  0.7462419814682806  1.0000
  N   N17       1.0  0.7296931422228495  0.8370239762825731  0.6165419339510549  1.0000
  N   N18       1.0  0.22969042210814905  0.162980867852383  0.3834598479448772  1.0000
  N   N19       1.0  0.22968898335076904  0.662977765718942  0.1165407460204335  1.0000
  N   N20       1.0  0.7296931422228495  0.3370197128147936  0.8834580660489453  1.0000
  N   N21       1.0  0.41696915413577773  0.8588305752514387  0.8052346162984065  1.0000
  N   N22       1.0  0.9169704354931056  0.1411691129626647  0.19476597766690426  1.0000
  N   N23       1.0  0.9169704354931056  0.6411682205095914  0.3052346162984065  1.0000
  N   N24       1.0  0.41696052159149116  0.358830731144387  0.6947647897362828  1.0000
  N   N25       1.0  0.3864027535739893  0.8231339255038534  0.4777488714659058  1.0000
  N   N26       1.0  0.8863925248722637  0.1768598702292721  0.5222499406034657  1.0000
  N   N27       1.0  0.8863968411444034  0.676863397136934  0.9777494654312165  1.0000
  N   N28       1.0  0.38639843730184237  0.3231370276372871  0.022249346638155  1.0000
  N   N29       1.0  0.990272246546162  0.5553383426252481  0.8084717272511313  1.0000
  N   N30       1.0  0.4902709651888414  0.4446613455888553  0.19153005464480805  1.0000
  N   N31       1.0  0.49027815897574806  0.9446641359363921  0.308469945355192  1.0000
  N   N32       1.0  0.9902679302740223  0.05533923507832129  0.6915282727488687  1.0000
  N   N33       1.0  0.894708542535106  0.7413588110905494  0.7151473033974796  1.0000
  N   N34       1.0  0.39470438366301847  0.2586423502437967  0.28485091470658125  1.0000
  N   N35       1.0  0.39470438366301847  0.7586421943508483  0.21514849132810815  1.0000
  N   N36       1.0  0.894711420049866  0.24135823042337273  0.7848509147065812  1.0000
  N   N37       1.0  0.8039200742719712  0.5513100953185982  0.8088025659301508  1.0000
  N   N38       1.0  0.3039173541572637  0.44868959289550486  0.1911992159657885  1.0000
  N   N39       1.0  0.3039245479441703  0.9486909101227992  0.30880197196484  1.0000
  N   N40       1.0  0.8039143192424447  0.05131246089191419  0.69119802803516  1.0000
  N   N41       1.0  0.7910834809176635  0.8903767087121395  0.5535109289617495  1.0000
  N   N42       1.0  0.2910793220455759  0.10962739886269188  0.44649025896887923  1.0000
  N   N43       1.0  0.2910807608029558  0.6096235601691333  0.0535103349964388  1.0000
  N   N44       1.0  0.7910849196750434  0.3903746549247202  0.9464884770729398  1.0000
  N   N45       1.0  0.9771421466861056  0.8802932006433792  0.5469577096697549  1.0000
  N   N46       1.0  0.477137987814018  0.119707224130849  0.4530416963649344  1.0000
  N   N47       1.0  0.477139426571405  0.6197048585575331  0.0469577096697549  1.0000
  N   N48       1.0  0.9771435854434855  0.3802933565363276  0.953040508434306  1.0000
  N   N49       1.0  0.8964350513924442  0.4890184692497001  0.6124109052031343  1.0000
  N   N50       1.0  0.39643233127774374  0.5109804824042783  0.3875902827274871  1.0000
  N   N51       1.0  0.3964352087925035  0.0109828479775942  0.1124091233072022  1.0000
  N   N52       1.0  0.8964364901498241  0.9890190499168696  0.8875896887621764  1.0000
  N   N53       1.0  0.5060670824761075  0.7181998877378817  0.8611671418389193  1.0000
  N   N54       1.0  0.006065801118779698  0.2818012735964643  0.1388340460917092  1.0000
  N   N55       1.0  0.0060686786335467  0.7818003811433909  0.3611665478736016  1.0000
  N   N56       1.0  0.5060598886892008  0.21820004363083  0.6388334521263985  1.0000
  N   N57       1.0  0.4444177674526983  0.7008833592720976  0.7868834640057045  1.0000
  N   N58       1.0  0.9444147325378791  0.2991163289420057  0.21311712995961332  1.0000
  N   N59       1.0  0.9444176100526391  0.799116909609175  0.2868834640057045  1.0000
  N   N60       1.0  0.44440913490841166  0.2008835151650459  0.713115942028985  1.0000
  N   N61       1.0  0.477478973313346  0.7729329338358821  0.4320212639581841  1.0000
  N   N62       1.0  0.9774658670968605  0.2270593887770005  0.5679775481111875  1.0000
  N   N63       1.0  0.977470183369  0.727064388804905  0.932021263958184  1.0000
  N   N64       1.0  0.4774703407690594  0.272936035969316  0.06797695414587682  1.0000
  N   N65       1.0  0.5378218966347035  0.8666432684643937  0.938812069375146  1.0000
  N   N66       1.0  0.03781917651999579  0.1333586294300702  0.0611873366595361  1.0000
  N   N67       1.0  0.037816299005236  0.6333562638567543  0.4388126633404639  1.0000
  N   N68       1.0  0.5378190191199366  0.3666441609174669  0.5611885245901647  1.0000
  N   N69       1.0  0.5648489540389505  0.723931798606479  0.388500237586122  1.0000
  N   N70       1.0  0.0648347238651965  0.2760597874462789  0.6114991684485602  1.0000
  N   N71       1.0  0.0648361626225764  0.7760640509140586  0.8884996436208112  1.0000
  N   N72       1.0  0.5648374439799042  0.22393490073991976  0.11150035637918883  1.0000
  Cl  Cl1       1.0  0.3961733549491413  0.6072496268962622  0.5869796863863145  1.0000
  Cl  Cl2       1.0  0.8961674425195553  0.3927544806785689  0.4130226894749356  1.0000
  Cl  Cl3       1.0  0.8961760750638419  0.8927513785451351  0.0869796863863144  1.0000
  Cl  Cl4       1.0  0.3961517735884214  0.10724241718799017  0.9130185317177464  1.0000
  Cl  Cl5       1.0  0.3556895997593158  0.9912228378015797  0.6184764789736263  1.0000
  Cl  Cl6       1.0  0.8557009524183099  0.0087768504125165  0.381520551199813  1.0000
  Cl  Cl7       1.0  0.8556980749035501  0.5087803773201784  0.11847885483487633  1.0000
  Cl  Cl8       1.0  0.3556939160314627  0.49122299369453504  0.8815241149916845  1.0000
