data_image0
_chemical_formula_structural       Zn6H36C56S8N24O12
_chemical_formula_sum              "Zn6 H36 C56 S8 N24 O12"
_cell_length_a       8.940404214611249
_cell_length_b       12.762653249410404
_cell_length_c       17.390462699615117
_cell_angle_alpha    111.99778781819873
_cell_angle_beta     89.98489005343959
_cell_angle_gamma    110.49192879142282

_space_group_name_H-M_alt    "P 1"
_space_group_IT_number       1

loop_
  _space_group_symop_operation_xyz
  'x, y, z'

loop_
  _atom_site_type_symbol
  _atom_site_label
  _atom_site_symmetry_multiplicity
  _atom_site_fract_x
  _atom_site_fract_y
  _atom_site_fract_z
  _atom_site_occupancy
  Zn  Zn1       1.0  0.1657749151074696  0.9999670404796744  0.7499887106430163  1.0000
  Zn  Zn2       1.0  0.8342234732401508  3.122681115289972e-05  0.2500117800414756  1.0000
  Zn  Zn3       1.0  0.9621200473773969  0.7567284800540434  0.5842478426108213  1.0000
  Zn  Zn4       1.0  0.20555170679251944  0.2431975499033783  0.9158565938312364  1.0000
  Zn  Zn5       1.0  0.037878809998694904  0.24327072653667164  0.4157546255928395  1.0000
  Zn  Zn6       1.0  0.7944464623458316  0.75680251579859  0.08414265492641694  1.0000
  H   H1        1.0  0.9648037086884215  0.03851479431466491  0.8407448212760045  1.0000
  H   H2        1.0  0.9261308902048242  0.9615728557641603  0.6594748482903013  1.0000
  H   H3        1.0  0.03519492947839367  0.9614862106871842  0.1592564050008249  1.0000
  H   H4        1.0  0.07386885777412293  0.03842813122833629  0.3405252229608067  1.0000
  H   H5        1.0  0.55509977684045  0.27157474787156843  0.4113304270631629  1.0000
  H   H6        1.0  0.2835658948173504  0.7279493862586295  0.0886690256669951  1.0000
  H   H7        1.0  0.44489281303918926  0.7284253453875636  0.5886705546470878  1.0000
  H   H8        1.0  0.716444577162605  0.2720506777363809  0.9113302217894983  1.0000
  H   H9        1.0  0.36094168873274424  0.0679700863944674  0.3142609013733235  1.0000
  H   H10       1.0  0.293010926051771  0.9317219462847248  0.18561402173995128  1.0000
  H   H11       1.0  0.6390506991936533  0.932031840984159  0.6857411482249702  1.0000
  H   H12       1.0  0.7069944011858882  0.06827901315061521  0.8143843165585594  1.0000
  H   H13       1.0  0.18845451689517032  0.21636764274598624  0.17607534060762486  1.0000
  H   H14       1.0  0.9723002008105085  0.7838381824590073  0.32408292180767256  1.0000
  H   H15       1.0  0.8115467969823559  0.7836342387557739  0.8239238207757751  1.0000
  H   H16       1.0  0.02770242483239831  0.21616184691389156  0.6759140166619559  1.0000
  H   H17       1.0  0.3797343089758982  0.4267632173094639  0.2655641429669018  1.0000
  H   H18       1.0  0.9534002284073468  0.5733387241140803  0.2348114513108612  1.0000
  H   H19       1.0  0.6202647766493499  0.5732386823568305  0.7344361735605104  1.0000
  H   H20       1.0  0.04660576549801475  0.42666133157455016  0.7651872191650568  1.0000
  H   H21       1.0  0.6270525230491585  0.9814246346372427  0.9342232838953778  1.0000
  H   H22       1.0  0.6461561211108704  0.018387665877128295  0.565574240784258  1.0000
  H   H23       1.0  0.37294965513531514  0.018574500071224503  0.06577456432367508  1.0000
  H   H24       1.0  0.3538436311820874  0.981613330042464  0.43442640792056864  1.0000
  H   H25       1.0  0.7898462581902095  0.9521210110711921  0.036563305382941315  1.0000
  H   H26       1.0  0.8380961540097261  0.047826529402833294  0.4631410545821595  1.0000
  H   H27       1.0  0.2101555117737703  0.047881782949183105  0.9634361011584716  1.0000
  H   H28       1.0  0.16190381749250096  0.9521726681056111  0.5368608360494989  1.0000
  H   H29       1.0  0.4585360165640538  0.6030834654513769  0.9826537880808175  1.0000
  H   H30       1.0  0.8552909939979046  0.39686865511892944  0.5172601818134126  1.0000
  H   H31       1.0  0.5414659769231988  0.3969175390849386  0.017347437841152658  1.0000
  H   H32       1.0  0.14470449080172185  0.6031305162289584  0.4827399769302403  1.0000
  H   H33       1.0  0.28396068358691207  0.6142784045083759  0.8763269935080514  1.0000
  H   H34       1.0  0.6696804992289956  0.385529029605003  0.6236722504698022  1.0000
  H   H35       1.0  0.7160419722540398  0.385721687354149  0.12367398713760741  1.0000
  H   H36       1.0  0.3303138541884607  0.6144701151167952  0.37632617603098584  1.0000
  C   C1        1.0  0.5950034100457486  0.4871851674297505  0.4006777495058813  1.0000
  C   C2        1.0  0.10810089969284319  0.5126337261956238  0.09960915623539528  1.0000
  C   C3        1.0  0.40499273279357345  0.5128130823172513  0.5993215865077488  1.0000
  C   C4        1.0  0.891905558926979  0.48736725986579904  0.9003909143059872  1.0000
  C   C5        1.0  0.7178494518442521  0.6860438479780911  0.4447225307080487  1.0000
  C   C6        1.0  0.03207086942677509  0.31376923059862355  0.05554465509118961  1.0000
  C   C7        1.0  0.28214827414967664  0.3139553319865272  0.5552782052527476  1.0000
  C   C8        1.0  0.9679335758360351  0.6862299662891047  0.9444572350673112  1.0000
  C   C9        1.0  0.48398002645544125  0.36651292898060456  0.3460676311272621  1.0000
  C   C10       1.0  0.11773744684231251  0.6333262341611389  0.1541609322420783  1.0000
  C   C11       1.0  0.5160163705170789  0.633488067404521  0.653933017932431  1.0000
  C   C12       1.0  0.8822723584699333  0.36667473358057384  0.8458379830369935  1.0000
  C   C13       1.0  0.4770627997726891  0.2631276309855934  0.3595043521785755  1.0000
  C   C14       1.0  0.21403792975249322  0.7365911552700912  0.14054945730301685  1.0000
  C   C15       1.0  0.5229345180007384  0.7368752082909396  0.6404979421045879  1.0000
  C   C16       1.0  0.785970094765908  0.26341072530059517  0.8594497033706502  1.0000
  C   C17       1.0  0.3682900002459277  0.14962271596606774  0.3051292414038187  1.0000
  C   C18       1.0  0.21870627168897266  0.8501551097548941  0.19482219884833538  1.0000
  C   C19       1.0  0.6317059406401454  0.8503773679004425  0.6948711624978543  1.0000
  C   C20       1.0  0.781301292428978  0.14984584937008802  0.8051761392136001  1.0000
  C   C21       1.0  0.27307757551159995  0.23163332468519834  0.22824771129907623  1.0000
  C   C22       1.0  0.04160552631162053  0.7684198650656455  0.27187514889161685  1.0000
  C   C23       1.0  0.7269201375403044  0.7683658284981617  0.7717512923005642  1.0000
  C   C24       1.0  0.9583988844391417  0.23157926040536844  0.728122121637135  1.0000
  C   C25       1.0  0.3793292952183976  0.34954650946806254  0.2785267417915591  1.0000
  C   C26       1.0  0.030068889093179466  0.6504711936963262  0.22172788632752827  1.0000
  C   C27       1.0  0.6206677554798149  0.6504535563890884  0.7214725070843854  1.0000
  C   C28       1.0  0.9699409248470803  0.34952979189956324  0.7782721838589808  1.0000
  C   C29       1.0  0.3472352438649083  0.8091428364364289  0.8343675193262072  1.0000
  C   C30       1.0  0.5381637747067674  0.190616963074156  0.6654723592339167  1.0000
  C   C31       1.0  0.6527669472615827  0.19085632505330347  0.1656320612539943  1.0000
  C   C32       1.0  0.461832828533005  0.8093822081185563  0.33452779939144506  1.0000
  C   C33       1.0  0.1563926926900692  0.7469348228567868  0.7317230050890942  1.0000
  C   C34       1.0  0.40938485634669064  0.2528506960918834  0.7681215199722473  1.0000
  C   C35       1.0  0.8436059368487321  0.25306616429088546  0.268277066280298  1.0000
  C   C36       1.0  0.590615110841526  0.7471484924894726  0.23187979320569246  1.0000
  C   C37       1.0  0.44286001339897757  0.7989029044509195  0.8963107540911962  1.0000
  C   C38       1.0  0.6442128561155585  0.20090742951753537  0.6035898477790198  1.0000
  C   C39       1.0  0.5571408357640948  0.20109804667804101  0.1036870072267462  1.0000
  C   C40       1.0  0.35578263299807117  0.7990917507574408  0.39641088841835165  1.0000
  C   C41       1.0  0.58519607317416  0.8964476419222296  0.9432248652793191  1.0000
  C   C42       1.0  0.6891985394542601  0.1034302694046403  0.5566534635735962  1.0000
  C   C43       1.0  0.41480678462003345  0.1035506158207937  0.05677504747829689  1.0000
  C   C44       1.0  0.31079963831210483  0.8965698141515122  0.44334694009149445  1.0000
  C   C45       1.0  0.6761398346222053  0.8812576732509214  0.9998457608748411  1.0000
  C   C46       1.0  0.7952327395261066  0.11867224236017652  0.49997037090446383  1.0000
  C   C47       1.0  0.3238587776605755  0.11874327818840413  0.0001520006796767093  1.0000
  C   C48       1.0  0.20476320135996678  0.8813278415063339  0.5000300329972092  1.0000
  C   C49       1.0  0.492072899355776  0.6843257058726381  0.9689591367367996  1.0000
  C   C50       1.0  0.8077851046487368  0.3156043489467706  0.5309320341009139  1.0000
  C   C51       1.0  0.5079257301830253  0.31567528127504124  0.031040934632599704  1.0000
  C   C52       1.0  0.1922054416758527  0.6843938926490338  0.46906672505043184  1.0000
  C   C53       1.0  0.3951547563573998  0.6910826408521802  0.9102044233922442  1.0000
  C   C54       1.0  0.7041792131019379  0.3087722906152948  0.5897504510993556  1.0000
  C   C55       1.0  0.6048474477111085  0.30891654741881786  0.0897968895491204  1.0000
  C   C56       1.0  0.2958135701029434  0.6912259506701588  0.4102483078154151  1.0000
  S   S1        1.0  0.775483404134448  0.8263510346049614  0.44892835942687975  1.0000
  S   S2        1.0  0.9495971320559277  0.17354854997903862  0.0514747069992794  1.0000
  S   S3        1.0  0.22451366381977786  0.17364906696054314  0.5510731992639393  1.0000
  S   S4        1.0  0.050408694408240196  0.8264534112458078  0.9485296509944376  1.0000
  S   S5        1.0  0.9994057536027653  0.6440630052315299  0.6558258602483846  1.0000
  S   S6        1.0  0.35523986726551016  0.3557044857264771  0.8440880352990874  1.0000
  S   S7        1.0  0.0005930908313018841  0.3559361745779128  0.3441748755941205  1.0000
  S   S8        1.0  0.6447616787633096  0.644295624145407  0.15591410037229989  1.0000
  N   N1        1.0  0.7700092853396184  0.645501089284778  0.4966334397329106  1.0000
  N   N2        1.0  0.12446804052909499  0.3542421195329126  0.0035119139677349037  1.0000
  N   N3        1.0  0.22999067322059122  0.3544980814423937  0.5033667185375847  1.0000
  N   N4        1.0  0.875532580384814  0.6457561385204684  0.9964879990264632  1.0000
  N   N5        1.0  0.6937906752032106  0.5207295271276707  0.46850487491337833  1.0000
  N   N6        1.0  0.17304907159607552  0.47903133892336314  0.03165574169032937  1.0000
  N   N7        1.0  0.30621152886529773  0.47926966114332725  0.5314964380279791  1.0000
  N   N8        1.0  0.8269537775701111  0.5209669009654833  0.9683430161598494  1.0000
  N   N9        1.0  0.2668074162555101  0.1322290018575387  0.24013352920385958  1.0000
  N   N10       1.0  0.1346614006887349  0.8677120969976782  0.2598572352616627  1.0000
  N   N11       1.0  0.7331912132832912  0.8677719852901404  0.7598665421655397  1.0000
  N   N12       1.0  0.8653407818097492  0.13228704663787738  0.7401411904111016  1.0000
  N   N13       1.0  0.23224225564759154  0.868123943469023  0.7594376136114108  1.0000
  N   N14       1.0  0.3640835878676186  0.13164906131053303  0.7403974315756585  1.0000
  N   N15       1.0  0.7677559221187736  0.13187614008712253  0.24056279005367995  1.0000
  N   N16       1.0  0.6359145985267605  0.8683510400997962  0.2596041269968765  1.0000
  N   N17       1.0  0.35455443434737094  0.906835961270659  0.8240816873825026  1.0000
  N   N18       1.0  0.44778031732388973  0.09292426027927551  0.6757542169975109  1.0000
  N   N19       1.0  0.6454464277577117  0.09316501663957412  0.1759178062965958  1.0000
  N   N20       1.0  0.5522162902298859  0.9070749198405252  0.3242465190815694  1.0000
  N   N21       1.0  0.6309780050200686  0.7770974743456946  0.012262060274366592  1.0000
  N   N22       1.0  0.8540348476453092  0.22286624271767147  0.4875737455743518  1.0000
  N   N23       1.0  0.3690228613990243  0.22290351249162646  0.9877380108584504  1.0000
  N   N24       1.0  0.14595951440016822  0.7771329198583102  0.5124258358338736  1.0000
  O   O1        1.0  0.6024654498266174  0.5843385499805294  0.38199253720782866  1.0000
  O   O2        1.0  0.01854128826492031  0.4155216690041144  0.11835824915252147  1.0000
  O   O3        1.0  0.39753273656776134  0.41566155142979966  0.6180090213646992  1.0000
  O   O4        1.0  0.9814640562287664  0.5844793261395866  0.8816423989608566  1.0000
  O   O5        1.0  0.22844844429673836  0.7056142651824048  0.777705210470458  1.0000
  O   O6        1.0  0.5227823559611906  0.2941593902453831  0.7221349279219069  1.0000
  O   O7        1.0  0.7715508432817586  0.2943858003643882  0.22229403816891138  1.0000
  O   O8        1.0  0.47721470336502847  0.7058406934659444  0.27786547586147486  1.0000
  O   O9        1.0  0.08287361912622522  0.07141453746086059  0.8513611809941466  1.0000
  O   O10       1.0  0.01122733163550302  0.9285726522230108  0.6487624766354969  1.0000
  O   O11       1.0  0.9171236507812569  0.9285837299851494  0.14863930980862963  1.0000
  O   O12       1.0  0.9887724163434513  0.07142833476949313  0.3512375946156112  1.0000
