data_image0
_chemical_formula_structural       Cd4H24C32S8N20
_chemical_formula_sum              "Cd4 H24 C32 S8 N20"
_cell_length_a       7.121321369028068
_cell_length_b       11.292300471045934
_cell_length_c       14.989941676011734
_cell_angle_alpha    90.00009961459476
_cell_angle_beta     90.00010850946694
_cell_angle_gamma    89.99969387506147

_space_group_name_H-M_alt    "P 1"
_space_group_IT_number       1

loop_
  _space_group_symop_operation_xyz
  'x, y, z'

loop_
  _atom_site_type_symbol
  _atom_site_label
  _atom_site_symmetry_multiplicity
  _atom_site_fract_x
  _atom_site_fract_y
  _atom_site_fract_z
  _atom_site_occupancy
  Cd  Cd1       1.0  0.4577095855503117  0.5476452742126552  0.2786207414672576  1.0000
  Cd  Cd2       1.0  0.4577108478648171  0.4523507558181449  0.7213775707524307  1.0000
  Cd  Cd3       1.0  0.5422787874844203  0.9523488883704513  0.7786216618327089  1.0000
  Cd  Cd4       1.0  0.5422914339651753  0.047645975410326  0.2213807317437997  1.0000
  H   H1        1.0  0.366567019211324  0.49999728070446975  0.4999997808315727  1.0000
  H   H2        1.0  0.633434323122458  0.9999971360215693  1.6284436625999997e-06  1.0000
  H   H3        1.0  0.8618187978141592  0.5317072848975569  0.3574290973434274  1.0000
  H   H4        1.0  0.8618196195773534  0.4682874039414384  0.6425735934711768  1.0000
  H   H5        1.0  0.138179708358706  0.9682879418164345  0.8574276617124428  1.0000
  H   H6        1.0  0.1381837629505043  0.031717118731258195  0.14257235462228834  1.0000
  H   H7        1.0  0.049193334932923  0.4999916084573071  0.5000009674415296  1.0000
  H   H8        1.0  0.9508086157083824  3.9830496164e-06  0.9999996633127283  1.0000
  H   H9        1.0  0.0527534952003847  0.5873799969790807  0.18797112750507955  1.0000
  H   H10       1.0  0.0527442144082499  0.412623575987247  0.812023472444942  1.0000
  H   H11       1.0  0.9472457625409164  0.9126272435521015  0.6879757071707291  1.0000
  H   H12       1.0  0.9472584164824908  0.08738221624870589  0.31202639601141163  1.0000
  H   H13       1.0  0.08463480687140648  0.6852828818227862  0.9218559843308471  1.0000
  H   H14       1.0  0.08463898816596328  0.3147214708710563  0.07813997951070922  1.0000
  H   H15       1.0  0.9153639473729741  0.8147266598431667  0.42185918137495554  1.0000
  H   H16       1.0  0.9153655504859302  0.18527493575459886  0.5781415579115788  1.0000
  H   H17       1.0  0.4385606976502672  0.6893797877975556  0.9316633946392658  1.0000
  H   H18       1.0  0.4385634721800855  0.3106233902571204  0.06833489977314142  1.0000
  H   H19       1.0  0.5614409028736631  0.8106209204990831  0.4316682583276119  1.0000
  H   H20       1.0  0.5614466456356624  0.1893747652567086  0.5683354872992936  1.0000
  H   H21       1.0  0.5856682307402751  0.6339957096435285  0.08014510298966122  1.0000
  H   H22       1.0  0.5856667872520802  0.3660069801825684  0.9198526611493778  1.0000
  H   H23       1.0  0.41432780328981533  0.8660050876258009  0.5801464563048812  1.0000
  H   H24       1.0  0.4143390673980889  0.13399374304553646  0.4198518155665597  1.0000
  C   C1        1.0  0.2921745959462072  0.821593315509126  0.31721405932206187  1.0000
  C   C2        1.0  0.2921626188021307  0.17840503506089778  0.6827887687064591  1.0000
  C   C3        1.0  0.7078251595650754  0.6784053623049076  0.8172114328205355  1.0000
  C   C4        1.0  0.7078296847661036  0.3215924942914796  0.18278844629335114  1.0000
  C   C5        1.0  0.2556148203760316  0.2759516274072026  0.27214612492713297  1.0000
  C   C6        1.0  0.2556137712759821  0.7240433022447307  0.7278553348674139  1.0000
  C   C7        1.0  0.7443806357782494  0.22404787554876285  0.7721402577227892  1.0000
  C   C8        1.0  0.744389852816802  0.7759525163918894  0.2278583211717304  1.0000
  C   C9        1.0  0.519610245814583  0.4999970267355637  0.49999851778562043  1.0000
  C   C10       1.0  0.4803882880465622  0.9999982755535297  2.2243748958e-06  1.0000
  C   C11       1.0  0.7950378407619639  0.5166697887669114  0.4218255709910822  1.0000
  C   C12       1.0  0.795039689438326  0.4833233505859482  0.5781723879037133  1.0000
  C   C13       1.0  0.20495810495889089  0.983325583888522  0.9218288873296746  1.0000
  C   C14       1.0  0.2049620408465387  0.016679255033253095  0.07817519380772352  1.0000
  C   C15       1.0  0.8965908454785705  0.49999640116087096  0.5000033629213831  1.0000
  C   C16       1.0  0.10340970091249353  3.6181456408999997e-06  0.9999986020631797  1.0000
  C   C17       1.0  0.1379116403284826  0.6096941091636267  0.12976948789049203  1.0000
  C   C18       1.0  0.1379126052346535  0.3903056389247438  0.8702311953039015  1.0000
  C   C19       1.0  0.8620873932714518  0.8903076861104251  0.6297659532139976  1.0000
  C   C20       1.0  0.8620958667731599  0.10969585740760829  0.37022939960589  1.0000
  C   C21       1.0  0.15718475726023942  0.6637433766792283  0.9840236905631202  1.0000
  C   C22       1.0  0.1571941308542577  0.3362589641033578  0.0159736749952089  1.0000
  C   C23       1.0  0.8428184491094157  0.8362636491768851  0.4840215119292709  1.0000
  C   C24       1.0  0.8428185937648464  0.16374084386577434  0.5159738229629414  1.0000
  C   C25       1.0  0.3527355451046077  0.6658577731178851  0.9890511540543232  1.0000
  C   C26       1.0  0.3527336836275197  0.33414746090162584  0.010941723608674202  1.0000
  C   C27       1.0  0.6472578510082132  0.8341492641578437  0.48905813028657974  1.0000
  C   C28       1.0  0.6472663835195434  0.16585233569198005  0.5109476965165385  1.0000
  C   C29       1.0  0.4335953027260828  0.6359246988511627  0.07045720398958373  1.0000
  C   C30       1.0  0.4335939131453515  0.36407761013469286  0.9295444213713965  1.0000
  C   C31       1.0  0.566406310922517  0.8640760764510914  0.5704553606270582  1.0000
  C   C32       1.0  0.5664133830844591  0.135917821697717  0.4295423855921926  1.0000
  S   S1        1.0  0.21778030605864274  0.7011857876426573  0.3658492237361699  1.0000
  S   S2        1.0  0.2177839569882067  0.2988145809252458  0.6341522008696217  1.0000
  S   S3        1.0  0.7822140198250835  0.7988138859571947  0.8658494954468383  1.0000
  S   S4        1.0  0.7822165846535327  0.20118638043088308  0.1341504528660238  1.0000
  S   S5        1.0  0.1765110988456158  0.3958494366293053  0.3194478864731921  1.0000
  S   S6        1.0  0.1765108985836576  0.6041466411076823  0.6805448272563056  1.0000
  S   S7        1.0  0.8234803268134244  0.1041457457400199  0.8194506054552733  1.0000
  S   S8        1.0  0.8234883306167903  0.8958472992087108  0.18055071547021131  1.0000
  N   N1        1.0  0.3466233171874292  0.9094309129215501  0.2830559049007918  1.0000
  N   N2        1.0  0.3466164396268142  0.09056991361000397  0.716948975123252  1.0000
  N   N3        1.0  0.6533763067658853  0.5905694586042073  0.7830537777397811  1.0000
  N   N4        1.0  0.6533759954638824  0.40943477762365876  0.21694538361248317  1.0000
  N   N5        1.0  0.30905605375858863  0.18845736940028243  0.2370178693803879  1.0000
  N   N6        1.0  0.30906000451015103  0.8115329550778438  0.7629803045557042  1.0000
  N   N7        1.0  0.6909462883192744  0.31153408391077153  0.7370160718128462  1.0000
  N   N8        1.0  0.6909409464085952  0.6884594009269945  0.2629851258204142  1.0000
  N   N9        1.0  0.6063495490411555  0.5155410140962003  0.4219368905158873  1.0000
  N   N10       1.0  0.6063513875703492  0.48445629373415494  0.5780642284293621  1.0000
  N   N11       1.0  0.3936449928685589  0.9844543588102539  0.9219370483112855  1.0000
  N   N12       1.0  0.3936517465319938  0.015544540514966296  0.0780632056604773  1.0000
  N   N13       1.0  0.32548219935603845  0.6071434001169961  0.140861010849278  1.0000
  N   N14       1.0  0.3254690572400634  0.3928610388139049  0.859132508570241  1.0000
  N   N15       1.0  0.6745196854401456  0.8928593058561205  0.6408659775753451  1.0000
  N   N16       1.0  0.6745267339109374  0.1071448601898481  0.3591358719043854  1.0000
  N   N17       1.0  0.04821173441672501  0.6365584949186099  0.05435155889914262  1.0000
  N   N18       1.0  0.0482104122850657  0.3634459786642735  0.9456403683743133  1.0000
  N   N19       1.0  0.9517898171972091  0.8634493283724536  0.5543614141271719  1.0000
  N   N20       1.0  0.9517913289808605  0.13655745969494149  0.4456466973010223  1.0000
