data_image0
_chemical_formula_structural       Zn4H48C56N16O16
_chemical_formula_sum              "Zn4 H48 C56 N16 O16"
_cell_length_a       7.751196116
_cell_length_b       12.23470221857125
_cell_length_c       16.6417
_cell_angle_alpha    90.0
_cell_angle_beta     90.0
_cell_angle_gamma    99.56818445622697

_space_group_name_H-M_alt    "P 1"
_space_group_IT_number       1

loop_
  _space_group_symop_operation_xyz
  'x, y, z'

loop_
  _atom_site_type_symbol
  _atom_site_label
  _atom_site_symmetry_multiplicity
  _atom_site_fract_x
  _atom_site_fract_y
  _atom_site_fract_z
  _atom_site_occupancy
  Zn  Zn1       1.0  0.8433179618527974  0.9206880429348985  0.6862243640974202  1.0000
  Zn  Zn2       1.0  0.15668221943091254  0.5793153933039292  0.18622496499756386  1.0000
  Zn  Zn3       1.0  0.1566787407209276  0.0793136953055296  0.313776236802731  1.0000
  Zn  Zn4       1.0  0.8433422134453465  0.4206838583019632  0.8137804431037665  1.0000
  H   H1        1.0  0.14662146137754928  0.8857997314527354  0.7846247679023153  1.0000
  H   H2        1.0  0.8533892583651265  0.614204533664271  0.2846145525997912  1.0000
  H   H3        1.0  0.8533746034864221  0.11420449342223553  0.21536802129590177  1.0000
  H   H4        1.0  0.1466313335486618  0.3858046644797852  0.71537643389798  1.0000
  H   H5        1.0  0.8432458584567611  0.6637242027830581  0.7216924953580488  1.0000
  H   H6        1.0  0.1567386238741122  0.8362784045775911  0.2217009079601269  1.0000
  H   H7        1.0  0.1567405084252655  0.3362725621882916  0.2783105091426989  1.0000
  H   H8        1.0  0.8432692842762605  0.1637316224446437  0.7783075046419514  1.0000
  H   H9        1.0  0.6135652272416223  0.4415641285389995  0.5595588191110255  1.0000
  H   H10       1.0  0.3864034548683222  0.0584259651648722  0.05955100740909811  1.0000
  H   H11       1.0  0.3864475945234389  0.5584351230668929  0.4404405799888239  1.0000
  H   H12       1.0  0.6135471793872328  0.9415575377555927  0.9404399790886728  1.0000
  H   H13       1.0  0.4982167396688482  0.383438217275355  0.4237944440772311  1.0000
  H   H14       1.0  0.5017799343267768  0.1165651384794018  0.9237920404766342  1.0000
  H   H15       1.0  0.5018014600613229  0.616561863208716  0.5762055559227692  1.0000
  H   H16       1.0  0.4982202036748689  0.8834349420046692  0.0762085604235168  1.0000
  H   H17       1.0  0.5133639242551595  0.1937900607708656  0.3737190311085996  1.0000
  H   H18       1.0  0.48665168135394765  0.3062166104966053  0.8737178293083048  1.0000
  H   H19       1.0  0.4866471724439663  0.8062075330786627  0.6262857760925868  1.0000
  H   H20       1.0  0.5133622277673169  0.6937867855001869  0.12628577609258684  1.0000
  H   H21       1.0  0.6247102145273402  0.0579501890894463  0.4640739828262711  1.0000
  H   H22       1.0  0.3753064490300204  0.4420506800307678  0.9640799918277595  1.0000
  H   H23       1.0  0.37529119889379814  0.9420449181255464  0.5359326270753613  1.0000
  H   H24       1.0  0.6247259567622407  0.5579543737223815  0.0359290216744697  1.0000
  H   H25       1.0  0.4696789516467065  0.9905376071790783  0.7839932218463233  1.0000
  H   H26       1.0  0.5303212737489034  0.5094807488669915  0.2839739930415775  1.0000
  H   H27       1.0  0.5303173012805757  0.0094575000359072  0.2159917556499664  1.0000
  H   H28       1.0  0.4696909691222757  0.49054088244976424  0.7160001682520447  1.0000
  H   H29       1.0  0.4509948138090962  0.1857084985140673  0.7033073544169142  1.0000
  H   H30       1.0  0.5489902490753309  0.3142948572406894  0.2032995427149871  1.0000
  H   H31       1.0  0.5490111371001306  0.8142940686045463  0.2966890401821942  1.0000
  H   H32       1.0  0.4510202540259344  0.6857201430506237  0.7966812284802672  1.0000
  H   H33       1.0  0.10555249083635938  0.1605661366745181  0.6541068520643947  1.0000
  H   H34       1.0  0.8944409063867197  0.3394198126384538  0.15411286106587604  1.0000
  H   H35       1.0  0.8944509092338605  0.8394463769822593  0.3458979551367918  1.0000
  H   H36       1.0  0.10558374396078561  0.6605802678456172  0.8458883407344189  1.0000
  H   H37       1.0  0.9334896523891629  0.5222297241564178  0.6254042555748498  1.0000
  H   H38       1.0  0.06649288740453578  0.9777703965696958  0.12541567267766854  1.0000
  H   H39       1.0  0.06648616132993372  0.4777612386676751  0.3745993498260418  1.0000
  H   H40       1.0  0.9334926242965056  0.0222280261580181  0.8745885336233672  1.0000
  H   H41       1.0  0.9836036046010719  0.6293431647471692  0.4774902804401009  1.0000
  H   H42       1.0  0.01640241899814754  0.870672704664365  0.977498092142028  1.0000
  H   H43       1.0  0.01638554529515801  0.3706494558332807  0.5225139258609417  1.0000
  H   H44       1.0  0.9835746701404419  0.1293132848906495  0.0225127240606398  1.0000
  H   H45       1.0  0.9266696941086536  0.8407170472324808  0.5113395867008776  1.0000
  H   H46       1.0  0.07335053555266312  0.6593037954481318  0.011341990301474404  1.0000
  H   H47       1.0  0.07333171931249181  0.1592780599825119  0.4886610141992734  1.0000
  H   H48       1.0  0.9266586186092809  0.3406913117668608  0.9886748349026818  1.0000
  C   C1        1.0  0.7351565777289438  0.08899333469373262  0.617133465931964  1.0000
  C   C2        1.0  0.2648355587786  0.4110025611574031  0.1171304614312234  1.0000
  C   C3        1.0  0.26484893823780453  0.911007574668517  0.3828713412692224  1.0000
  C   C4        1.0  0.7351654344040384  0.5889958615703108  0.8828683367684818  1.0000
  C   C5        1.0  0.6818996580782581  0.1731443630588245  0.5615982742147738  1.0000
  C   C6        1.0  0.31808278044734106  0.3268440728886901  0.0615910634129904  1.0000
  C   C7        1.0  0.31810778572170767  0.8268540596688894  0.43840773478670775  1.0000
  C   C8        1.0  0.681899686656358  0.6731427455444958  0.9384047302859673  1.0000
  C   C9        1.0  0.6828608192110012  0.2826756413011751  0.5882740345036837  1.0000
  C   C10       1.0  0.31711153050206786  0.2173185967935964  0.0882650210014617  1.0000
  C   C11       1.0  0.3171466245889576  0.7173227814265317  0.4117277681967622  1.0000
  C   C12       1.0  0.6828515994535991  0.7826731949086749  0.9117265663964602  1.0000
  C   C13       1.0  0.6135106032501909  0.35698125464202957  0.5387953153824441  1.0000
  C   C14       1.0  0.3864802431338887  0.1430146412090991  0.03878389827962542  1.0000
  C   C15       1.0  0.3865026387533916  0.6430146814511346  0.4612088909185985  1.0000
  C   C16       1.0  0.6134934252807511  0.8569779793713509  0.9612064873180017  1.0000
  C   C17       1.0  0.5513339426514889  0.3247569576309814  0.4620832006345523  1.0000
  C   C18       1.0  0.4486539032471413  0.1752422537328684  0.9620795952336608  1.0000
  C   C19       1.0  0.44867264596748413  0.6752431228530895  0.5379186020658935  1.0000
  C   C20       1.0  0.5513251431326012  0.8247511957257601  0.0379174002655986  1.0000
  C   C21       1.0  0.5587464293497248  0.2181690258064677  0.4340896663201477  1.0000
  C   C22       1.0  0.44125776791545224  0.2818335010701105  0.9340902672202989  1.0000
  C   C23       1.0  0.4412642324069155  0.7818269102867037  0.56591574178119  1.0000
  C   C24       1.0  0.5587484004650136  0.7181698949266818  0.0659127372804491  1.0000
  C   C25       1.0  0.6219493921085615  0.1423987847212231  0.4841494558849178  1.0000
  C   C26       1.0  0.3780526598521661  0.3576053999117121  0.9841506576852126  1.0000
  C   C27       1.0  0.3780550512059619  0.8576029535192049  0.5158553513162689  1.0000
  C   C28       1.0  0.6219614667403306  0.6423988249632586  0.0158553513162687  1.0000
  C   C29       1.0  0.3595623309476395  0.0195548940269248  0.7556157123370824  1.0000
  C   C30       1.0  0.6404377931798706  0.4804517772405532  0.2556000889332211  1.0000
  C   C31       1.0  0.6404392999447452  0.9804410420662464  0.24437587506083963  1.0000
  C   C32       1.0  0.359575507639569  0.5195640519289384  0.7443788795615802  1.0000
  C   C33       1.0  0.3468645150778258  0.1165013148595264  0.7136722810770522  1.0000
  C   C34       1.0  0.6531289556650819  0.3835095007988514  0.2136644693751251  1.0000
  C   C35       1.0  0.6531360578662984  0.8835004233809016  0.2863229117217614  1.0000
  C   C36       1.0  0.3468884329959963  0.6165071572488259  0.786318705420719  1.0000
  C   C37       1.0  0.1722761900584118  0.1042828216054232  0.6881051815619799  1.0000
  C   C38       1.0  0.8277275575603227  0.3957130742457124  0.18810458066182895  1.0000
  C   C39       1.0  0.8277224697564591  0.8957263765386331  0.3118918139372795  1.0000
  C   C40       1.0  0.1722964550774293  0.6042894928729012  0.8118930157375743  1.0000
  C   C41       1.0  0.922810177557068  0.6062116613727468  0.6079607251663006  1.0000
  C   C42       1.0  0.07717239164455951  0.8937984058915234  0.10797033956867352  1.0000
  C   C43       1.0  0.0771792045143727  0.3937867613549599  0.3920398757338505  1.0000
  C   C44       1.0  0.9228187154928165  0.1062016745925476  0.8920344676325132  1.0000
  C   C45       1.0  0.9481107477003974  0.6613237715732438  0.534712799774063  1.0000
  C   C46       1.0  0.05188969516645162  0.8386954133510116  0.0347164051749544  1.0000
  C   C47       1.0  0.05187905460955021  0.3386713356417488  0.4652938101275694  1.0000
  C   C48       1.0  0.948090641336762  0.1612980361076239  0.9652902047266779  1.0000
  C   C49       1.0  0.9198788218208804  0.7694874008182923  0.5507550310364948  1.0000
  C   C50       1.0  0.08012760731288894  0.7305201798114354  0.05076224183827091  1.0000
  C   C51       1.0  0.08011873593383001  0.2305126796657788  0.4492515788651375  1.0000
  C   C52       1.0  0.9198744585219742  0.2694774140380929  0.9492503770648428  1.0000
  C   C53       1.0  0.7791732618982223  0.3249277065361014  0.6635511996971462  1.0000
  C   C54       1.0  0.2207990584069179  0.17505658502051352  0.1635379798938814  1.0000
  C   C55       1.0  0.22082620898573424  0.6750649140443485  0.3364554102044863  1.0000
  C   C56       1.0  0.7791700872236049  0.8249335489254008  0.8364536075040405  1.0000
  N   N1        1.0  0.08350947849888259  0.006327656027529801  0.7132997229850346  1.0000
  N   N2        1.0  0.9164873688560746  0.49366160879816334  0.21329912208488375  1.0000
  N   N3        1.0  0.9164846732358356  0.993684028751062  0.2866966716140809  1.0000
  N   N4        1.0  0.0835390065573662  0.5063401294422718  0.7866984743145269  1.0000
  N   N5        1.0  0.1997338414673493  0.9560297507816244  0.7536315400469891  1.0000
  N   N6        1.0  0.800272993200963  0.5439695410663035  0.2536207238443212  1.0000
  N   N7        1.0  0.8002613535116723  0.0439711585806322  0.24636485455211954  1.0000
  N   N8        1.0  0.19974071315301964  0.4560379993213886  0.746369060853155  1.0000
  N   N9        1.0  0.878862772140799  0.7793004895935027  0.6287098072913224  1.0000
  N   N10       1.0  0.12113335070920783  0.7207120643053102  0.1287116099917682  1.0000
  N   N11       1.0  0.1211336835537509  0.2206904732305901  0.3712919954091235  1.0000
  N   N12       1.0  0.8788835736014633  0.2792929894478391  0.8713022107116473  1.0000
  N   N13       1.0  0.8815702653486355  0.6792872194942063  0.6626047819633814  1.0000
  N   N14       1.0  0.1184131296260489  0.8207112434755359  0.1626186026667966  1.0000
  N   N15       1.0  0.1184150435851308  0.3207153476244002  0.3373928144360221  1.0000
  N   N16       1.0  0.8815924010446636  0.179294639155799  0.8373910117355836  1.0000
  O   O1        1.0  0.769923076948821  0.9980762542278612  0.5871179026181252  1.0000
  O   O2        1.0  0.23006698611442997  0.5019230376200667  0.0871167008178233  1.0000
  O   O3        1.0  0.2300804964807384  0.0019221684998456  0.4128820973818748  1.0000
  O   O4        1.0  0.7699288465743379  0.4980753851076472  0.912880294681436  1.0000
  O   O5        1.0  0.7402003396312438  0.1060193213929068  0.6923343168065801  1.0000
  O   O6        1.0  0.25977651816197783  0.393972430067322  0.19233191320598317  1.0000
  O   O7        1.0  0.2598055818700474  0.8939732991875431  0.3076680867940169  1.0000
  O   O8        1.0  0.7402279251525458  0.6060293081731061  0.807669889494463  1.0000
  O   O9        1.0  0.6929705130187429  0.3674251197123652  0.718659752308959  1.0000
  O   O10       1.0  0.3070082873116533  0.1325691183824134  0.21864953700643505  1.0000
  O   O11       1.0  0.30702787050902464  0.6325633564771849  0.2813498620934141  1.0000
  O   O12       1.0  0.6929673383441326  0.8674309621016577  0.7813486602931194  1.0000
  O   O13       1.0  0.9411296505237985  0.3228505378165565  0.6657595077425995  1.0000
  O   O14       1.0  0.05884611991322691  0.1771370692527725  0.1657468888394789  1.0000
  O   O15       1.0  0.05887630038542823  0.6771520293020502  0.3342477030591837  1.0000
  O   O16       1.0  0.941122620182746  0.8228613534749343  0.8342507075599244  1.0000
