data_image0
_chemical_formula_structural       Ba4H36C28N4O28
_chemical_formula_sum              "Ba4 H36 C28 N4 O28"
_cell_length_a       7.119421204362203
_cell_length_b       7.625355132283748
_cell_length_c       18.643470860037215
_cell_angle_alpha    89.99977044736956
_cell_angle_beta     89.9999795314458
_cell_angle_gamma    90.53142792759526

_space_group_name_H-M_alt    "P 1"
_space_group_IT_number       1

loop_
  _space_group_symop_operation_xyz
  'x, y, z'

loop_
  _atom_site_type_symbol
  _atom_site_label
  _atom_site_symmetry_multiplicity
  _atom_site_fract_x
  _atom_site_fract_y
  _atom_site_fract_z
  _atom_site_occupancy
  Ba  Ba1       1.0  0.47403024430484214  0.24356050459849848  0.5653081344712519  1.0000
  Ba  Ba2       1.0  0.02597010523623311  0.7564441412462487  0.06530963703784211  1.0000
  Ba  Ba3       1.0  0.5259684218510471  0.7564393141274124  0.4346909345864418  1.0000
  Ba  Ba4       1.0  0.9740300523203872  0.24356485835183148  0.9346915775354105  1.0000
  H   H1        1.0  0.9686622683299363  0.7315421265717105  0.6064406011021362  1.0000
  H   H2        1.0  0.5313407784997253  0.2684626150757907  0.10644076421481691  1.0000
  H   H3        1.0  0.0313406364649325  0.2684603168577837  0.3935590043339517  1.0000
  H   H4        1.0  0.468670553981383  0.7315398318888738  0.8935577684591609  1.0000
  H   H5        1.0  0.14331421350430426  0.4794190375156828  0.8015472316678613  1.0000
  H   H6        1.0  0.3566619443189865  0.520579367866297  0.3015458673309014  1.0000
  H   H7        1.0  0.8566718359190375  0.5205833988513007  0.19845291015002436  1.0000
  H   H8        1.0  0.6433254105326754  0.4794125773241261  0.6984542744955818  1.0000
  H   H9        1.0  0.90837622529903  0.9965906428977006  0.7987398788490199  1.0000
  H   H10       1.0  0.5916181691128134  0.0034122262132569997  0.29874100947962035  1.0000
  H   H11       1.0  0.0916210858355768  0.0034144211223292994  0.20125919020441782  1.0000
  H   H12       1.0  0.4083832938740031  0.9965862822239018  0.7012569868173772  1.0000
  H   H13       1.0  0.9448849651922304  0.3005049695787108  0.5369168873243455  1.0000
  H   H14       1.0  0.5551209101241383  0.6994938916105795  0.036916871493843914  1.0000
  H   H15       1.0  0.055113688563224614  0.6994935376583414  0.4630859364001054  1.0000
  H   H16       1.0  0.44488755113565054  0.3005019968113487  0.9630843430897686  1.0000
  H   H17       1.0  0.848742828942328  0.3813824462113118  0.4690743084714343  1.0000
  H   H18       1.0  0.6512597692969493  0.6186161479732066  0.9690743690124819  1.0000
  H   H19       1.0  0.1512544078006144  0.6186147489668057  0.5309285152541819  1.0000
  H   H20       1.0  0.34875018336512653  0.3813889213339293  0.030926309182646602  1.0000
  H   H21       1.0  0.7354111405419561  0.23807974487288416  0.7245874780493865  1.0000
  H   H22       1.0  0.764584608761581  0.7619094193500613  0.22458948014988783  1.0000
  H   H23       1.0  0.26458464199593124  0.7619122038527094  0.2754115910149794  1.0000
  H   H24       1.0  0.23541686662159836  0.23809040054207034  0.7754117344308826  1.0000
  H   H25       1.0  0.8011670265180657  0.0781152952538307  0.6768357684538985  1.0000
  H   H26       1.0  0.6988301832058212  0.9218743336739905  0.17683644101165902  1.0000
  H   H27       1.0  0.1988273390066837  0.9218753414076062  0.3231643733732598  1.0000
  H   H28       1.0  0.30117129217766353  0.07812548622074897  0.8231642371883013  1.0000
  H   H29       1.0  0.075067848540094  0.032715453278555594  0.6077129896793921  1.0000
  H   H30       1.0  0.42493374447554544  0.9672769777859995  0.1077124880803311  1.0000
  H   H31       1.0  0.9249350066608668  0.9672817442606814  0.3922882249034673  1.0000
  H   H32       1.0  0.575069036335627  0.032712350926964  0.8922892628898467  1.0000
  H   H33       1.0  0.1384371896761962  0.9254109359323406  0.5394518898652478  1.0000
  H   H34       1.0  0.3615659125236875  0.07458478210544683  0.03945179862221691  1.0000
  H   H35       1.0  0.8615670205454226  0.07458101630756889  0.4605503974834874  1.0000
  H   H36       1.0  0.6384383472902826  0.9254124160116886  0.9605515614837971  1.0000
  C   C1        1.0  0.9883617868358031  0.73108714883287  0.6643960104640172  1.0000
  C   C2        1.0  0.5116256919143325  0.26891177718095344  0.1643956387444945  1.0000
  C   C3        1.0  0.0116340824891736  0.2689139801817788  0.33560413135437983  1.0000
  C   C4        1.0  0.48837437885614327  0.7310880421358874  0.8356028939323111  1.0000
  C   C5        1.0  0.06750952979189861  0.5854171451391037  0.6981463378330661  1.0000
  C   C6        1.0  0.4324751765578867  0.4145822687574423  0.19814353074914245  1.0000
  C   C7        1.0  0.9324849473161125  0.4145852947500187  0.3018554131267592  1.0000
  C   C8        1.0  0.5675235143951198  0.5854201729149009  0.8018544655447573  1.0000
  C   C9        1.0  0.08143510332160281  0.588571443705554  0.7727762147866245  1.0000
  C   C10       1.0  0.41853822930473683  0.41142199425920006  0.2727728781643037  1.0000
  C   C11       1.0  0.9185565521599415  0.4114296835389127  0.22722499979363422  1.0000
  C   C12       1.0  0.5814505549592468  0.5885725744738081  0.7272245817558771  1.0000
  C   C13       1.0  0.022453290491078807  0.7358687111430696  0.8106735462175012  1.0000
  C   C14       1.0  0.47752001024318264  0.26412566994764575  0.3106725917470428  1.0000
  C   C15       1.0  0.9775411866178771  0.26413372875386887  0.1893265955998871  1.0000
  C   C16       1.0  0.5224687864193527  0.7358702102585823  0.689324331791241  1.0000
  C   C17       1.0  0.952879412293406  0.8775322898522263  0.7715250851310813  1.0000
  C   C18       1.0  0.547100893392063  0.12246296906753426  0.27152441499265484  1.0000
  C   C19       1.0  0.047116469429809606  0.1224701506330348  0.22847505668622864  1.0000
  C   C20       1.0  0.4528921171126542  0.8775329128984524  0.7284735813070073  1.0000
  C   C21       1.0  0.14632585319942143  0.43663707552492775  0.6548406787658011  1.0000
  C   C22       1.0  0.35367861795107564  0.5633680133766105  0.1548403168101871  1.0000
  C   C23       1.0  0.8536742299677301  0.5633640552494865  0.3451605358139674  1.0000
  C   C24       1.0  0.6463341315422327  0.4366357456443808  0.8451587522434281  1.0000
  C   C25       1.0  0.042500134106880715  0.7430333841258872  0.8910255299801192  1.0000
  C   C26       1.0  0.4574970255568402  0.25696809484055183  0.3910224441587645  1.0000
  C   C27       1.0  0.9575028326788982  0.25697561665406  0.10897461183135701  1.0000
  C   C28       1.0  0.5424959849488146  0.7430277871332507  0.6089739429984605  1.0000
  N   N1        1.0  0.934714852252057  0.8757283223822013  0.6998259920538319  1.0000
  N   N2        1.0  0.5652711680802867  0.12426894722184299  0.19982531681501572  1.0000
  N   N3        1.0  0.0652796124589656  0.12427280604673288  0.3001736133838336  1.0000
  N   N4        1.0  0.434726081064035  0.8757295594529493  0.8001721431014133  1.0000
  O   O1        1.0  0.13282325841996823  0.443903828426805  0.5863652265872121  1.0000
  O   O2        1.0  0.3671897824328312  0.5561084868971377  0.08636272954166911  1.0000
  O   O3        1.0  0.8671796587722087  0.5560999264654852  0.4136359879902258  1.0000
  O   O4        1.0  0.6328300149295528  0.44389789801712715  0.9136341939861269  1.0000
  O   O5        1.0  0.23213821659006584  0.3144233008982766  0.6871319723045846  1.0000
  O   O6        1.0  0.2678691128396906  0.6855906556310597  0.18713088192324534  1.0000
  O   O7        1.0  0.7678604867596165  0.6855804522316403  0.3128687058922851  1.0000
  O   O8        1.0  0.7321479248874496  0.31442097399160923  0.8128655052195627  1.0000
  O   O9        1.0  0.0449270385238307  0.8920311495255291  0.921624322747448  1.0000
  O   O10       1.0  0.4550799796673176  0.107976593480295  0.42162845646563346  1.0000
  O   O11       1.0  0.9550675129752193  0.10797915920028338  0.0783747463018187  1.0000
  O   O12       1.0  0.5449088417901393  0.8920219096541115  0.5783711489745329  1.0000
  O   O13       1.0  0.05768926735220251  0.5981397041532048  0.9244368095102973  1.0000
  O   O14       1.0  0.4423234032085972  0.4018719483213857  0.42443294954092187  1.0000
  O   O15       1.0  0.9423277703718115  0.4018719254433947  0.07556494144061082  1.0000
  O   O16       1.0  0.5576794891896029  0.5981291836505348  0.575563973992196  1.0000
  O   O17       1.0  0.8400716484681966  0.2805925307243342  0.5032745691083848  1.0000
  O   O18       1.0  0.6599328615499048  0.719406656851838  0.003275044529786401  1.0000
  O   O19       1.0  0.1599270052872583  0.7194059765127179  0.49672825461605924  1.0000
  O   O20       1.0  0.3400742446870169  0.2805944768511708  0.9967288519536127  1.0000
  O   O21       1.0  0.7346833815802472  0.19214822902635117  0.6747244832033205  1.0000
  O   O22       1.0  0.7653081749591025  0.8078374836555324  0.17472533652994576  1.0000
  O   O23       1.0  0.26530674530490467  0.8078397829262796  0.3252761950070636  1.0000
  O   O24       1.0  0.23469751426625152  0.19216233799635765  0.825276950812196  1.0000
  O   O25       1.0  0.146978158571983  0.041920800791110886  0.563328538620745  1.0000
  O   O26       1.0  0.35302070188142665  0.9580746834182038  0.06332859699541162  1.0000
  O   O27       1.0  0.8530218626042655  0.9580737726328579  0.43667213958364215  1.0000
  O   O28       1.0  0.6469821409212815  0.04192120265042121  0.9366726175885277  1.0000
