data_image0
_chemical_formula_structural       Zn2H32C48N4O16F4
_chemical_formula_sum              "Zn2 H32 C48 N4 O16 F4"
_cell_length_a       10.53345564771647
_cell_length_b       11.801399245496446
_cell_length_c       23.62364632998827
_cell_angle_alpha    90.34560666940965
_cell_angle_beta     90.0100616467453
_cell_angle_gamma    89.91895692020307

_space_group_name_H-M_alt    "P 1"
_space_group_IT_number       1

loop_
  _space_group_symop_operation_xyz
  'x, y, z'

loop_
  _atom_site_type_symbol
  _atom_site_label
  _atom_site_symmetry_multiplicity
  _atom_site_fract_x
  _atom_site_fract_y
  _atom_site_fract_z
  _atom_site_occupancy
  Zn  Zn1       1.0  0.3815057206808703  0.49965971874212306  0.5012887362376189  1.0000
  Zn  Zn2       1.0  0.6382718812955942  0.49774743046483394  0.5012132443282125  1.0000
  H   H1        1.0  0.48275567194854563  0.7823735010069371  0.054293599029222185  1.0000
  H   H2        1.0  0.5193489919310678  0.21117548674077818  0.9484387093017471  1.0000
  H   H3        1.0  0.538534061673893  0.21410157024686782  0.055228195425151186  1.0000
  H   H4        1.0  0.5022146027614554  0.7813269783648239  0.9474756989686736  1.0000
  H   H5        1.0  0.7225680828408727  0.23729615050363856  0.6173124654762602  1.0000
  H   H6        1.0  0.5596013231445198  0.26768593257421  0.6295958055143556  1.0000
  H   H7        1.0  0.7382637234162956  0.15068760796143724  0.7138730594095148  1.0000
  H   H8        1.0  0.5762679680820568  0.1806200342219597  0.726423117888231  1.0000
  H   H9        1.0  0.5139840387647538  0.05334458994619239  0.6442294314885968  1.0000
  H   H10       1.0  0.6044379325679614  0.9778858646398947  0.6949493949843839  1.0000
  H   H11       1.0  0.6764647241227308  0.0232279261532469  0.6310731211579605  1.0000
  H   H12       1.0  0.6916277528206222  0.7796048433114536  0.3832151597297581  1.0000
  H   H13       1.0  0.532367432106838  0.7375076327857926  0.369589123389268  1.0000
  H   H14       1.0  0.7059538444328622  0.8590618300259296  0.2849746002182555  1.0000
  H   H15       1.0  0.5474210715513692  0.8182593988417396  0.2714542852742525  1.0000
  H   H16       1.0  0.471098857016635  0.9476878667630472  0.35051674101868696  1.0000
  H   H17       1.0  0.5572192835852192  0.02422841528183989  0.2987132447014672  1.0000
  H   H18       1.0  0.6300092560582227  0.9894639798541291  0.3641229250836488  1.0000
  H   H19       1.0  0.4373851564087019  0.7420767631423217  0.648336780437674  1.0000
  H   H20       1.0  0.3520570259393736  0.7636272632420431  0.7130880208322593  1.0000
  H   H21       1.0  0.23259823788450967  0.739304130226074  0.5952003684531559  1.0000
  H   H22       1.0  0.1479705316441908  0.7643501540086106  0.6591736210442105  1.0000
  H   H23       1.0  0.2657380431697618  0.9523490916532114  0.6705977269197659  1.0000
  H   H24       1.0  0.17738011483967847  0.9466604321458618  0.6066927136304299  1.0000
  H   H25       1.0  0.344030537649985  0.9258658164702566  0.605162881118815  1.0000
  H   H26       1.0  0.4687999522200172  0.2485268516543897  0.3566508333230657  1.0000
  H   H27       1.0  0.39406916640947287  0.22010232094577722  0.28990760049122594  1.0000
  H   H28       1.0  0.3135735850321097  0.10140940512838631  0.37126608085323193  1.0000
  H   H29       1.0  0.2597124236051441  0.22594010121447647  0.4050959005073975  1.0000
  H   H30       1.0  0.11253157246493829  0.2632398670739704  0.32104972898373046  1.0000
  H   H31       1.0  0.0792817731135145  0.130791800581008  0.35326749961939186  1.0000
  H   H32       1.0  0.1661424625724663  0.13561178351933734  0.2889432856519746  1.0000
  C   C1        1.0  0.5111328916192831  0.7171849375927974  0.5052408605800592  1.0000
  C   C2        1.0  0.5090814219402944  0.2805039777347673  0.4923396282802414  1.0000
  C   C3        1.0  0.5089072063548342  0.48496699417484723  0.6091394590107554  1.0000
  C   C4        1.0  0.5074757242687795  0.5114222244086619  0.39320899272235704  1.0000
  C   C5        1.0  0.5326573182412133  0.3945687787652972  0.12362701505224286  1.0000
  C   C6        1.0  0.5197620749093942  0.601420373980062  0.8791499975897277  1.0000
  C   C7        1.0  0.4858114525595951  0.6043689342724009  0.12304400941951596  1.0000
  C   C8        1.0  0.4994081211917844  0.38828362164275626  0.8796561177530787  1.0000
  C   C9        1.0  0.4976838557284608  0.6023734396912914  0.06059646411483748  1.0000
  C   C10       1.0  0.5111161898308295  0.39149660203756304  0.9421036688869006  1.0000
  C   C11       1.0  0.5220581505157398  0.39426177452115513  0.06106071600090249  1.0000
  C   C12       1.0  0.5090058313955694  0.6006795948590239  0.9416928868693545  1.0000
  C   C13       1.0  0.5099480985077135  0.4977446448971392  0.031510076958753096  1.0000
  C   C14       1.0  0.5100584465577285  0.49665383299714005  0.9712135931124448  1.0000
  C   C15       1.0  0.4928516723087597  0.7032938165465198  0.030650208591900693  1.0000
  C   C16       1.0  0.5192158048799341  0.2907847049866206  0.972065077681911  1.0000
  C   C17       1.0  0.5280101097272051  0.2923392385437182  0.0313979248353817  1.0000
  C   C18       1.0  0.5018187737354083  0.7025761344334925  0.9713285945520197  1.0000
  C   C19       1.0  0.6020729503523441  0.4310567928703221  0.7617241655471431  1.0000
  C   C20       1.0  0.5939807500054571  0.5719108782429174  0.24080089362480087  1.0000
  C   C21       1.0  0.41652303655298073  0.5489442505452331  0.7607657461912396  1.0000
  C   C22       1.0  0.4233790087515672  0.4373755393591523  0.24197347946024184  1.0000
  C   C23       1.0  0.6008845541476475  0.4230484575761508  0.7026572954029645  1.0000
  C   C24       1.0  0.5918572783717407  0.5802945051519401  0.2998092423074822  1.0000
  C   C25       1.0  0.4146368831681713  0.5476122287534579  0.7015378552771381  1.0000
  C   C26       1.0  0.421763828222268  0.43879490453373654  0.3012034999889791  1.0000
  C   C27       1.0  0.507326004638081  0.48361537425422085  0.6726051447917241  1.0000
  C   C28       1.0  0.5059672220618623  0.5116662973965377  0.32974911539114515  1.0000
  C   C29       1.0  0.5100124386579239  0.4924528903630615  0.7915975141264011  1.0000
  C   C30       1.0  0.50952579816785  0.5021473279325194  0.2110953779233568  1.0000
  C   C31       1.0  0.5078904931652914  0.8386085055883399  0.5008762650291416  1.0000
  C   C32       1.0  0.5070801046669401  0.1587020228606448  0.489975138661819  1.0000
  C   C33       1.0  0.5065543674127895  0.9416272981667217  0.49588096668097126  1.0000
  C   C34       1.0  0.5060764052334009  0.0552649904546527  0.49197843227117477  1.0000
  C   C35       1.0  0.9451331063568205  0.4973883876797416  0.5017808615576769  1.0000
  C   C36       1.0  0.07472560921747369  0.4988804354739359  0.5019859883432713  1.0000
  C   C37       1.0  0.6521485288560029  0.2550268113826278  0.650520588812462  1.0000
  C   C38       1.0  0.6452769021065022  0.1589186285078767  0.6930241298229233  1.0000
  C   C39       1.0  0.60803076665983  0.04732342674353872  0.664236093325371  1.0000
  C   C40       1.0  0.6249765239707371  0.7547834639125883  0.3495924456136165  1.0000
  C   C41       1.0  0.6127451840943081  0.8467654299159265  0.3050475998600389  1.0000
  C   C42       1.0  0.5652169319999629  0.958104769636357  0.3310331787844446  1.0000
  C   C43       1.0  0.345742433619776  0.7279802307301325  0.669884512052249  1.0000
  C   C44       1.0  0.2377620041564512  0.781071047682943  0.636914393943236  1.0000
  C   C45       1.0  0.2573894402417523  0.9084852391259374  0.6295414036893872  1.0000
  C   C46       1.0  0.37828947407775354  0.2527335637266718  0.3332223799676014  1.0000
  C   C47       1.0  0.27523937123935127  0.1867622361008614  0.36325520087147106  1.0000
  C   C48       1.0  0.15133520032011918  0.17872634158212725  0.32983484439446886  1.0000
  N   N1        1.0  0.5095147631120794  0.500099389839832  0.15077552456317989  1.0000
  N   N2        1.0  0.5099326446336787  0.4942636147960967  0.8519320026719155  1.0000
  N   N3        1.0  0.8349697873881112  0.49647237245280007  0.5014363773448237  1.0000
  N   N4        1.0  0.18487086198944522  0.5003890235464397  0.5019992780675011  1.0000
  O   O1        1.0  0.4082967050994313  0.6688462566261605  0.519943255885529  1.0000
  O   O2        1.0  0.6144991659333029  0.32509230119264737  0.5066047783209766  1.0000
  O   O3        1.0  0.4054956200331503  0.3310837360868106  0.4807655116181094  1.0000
  O   O4        1.0  0.6169002000144771  0.6703048856737297  0.49340415961327705  1.0000
  O   O5        1.0  0.40670344390731117  0.4586506828082051  0.5835620837828015  1.0000
  O   O6        1.0  0.6110480505761017  0.4818052549614862  0.4165201680831314  1.0000
  O   O7        1.0  0.40556343546744966  0.5396603372593347  0.4185475665746166  1.0000
  O   O8        1.0  0.612781660250178  0.513696252110087  0.585768992944672  1.0000
  O   O9        1.0  0.5595263726300104  0.31002808234739393  0.15109576703284225  1.0000
  O   O10       1.0  0.5361032283088532  0.6880319156636646  0.851717812093696  1.0000
  O   O11       1.0  0.45746316744210697  0.6897899929761734  0.15002604326551955  1.0000
  O   O12       1.0  0.4816888575740848  0.30064085841096505  0.8526817499955752  1.0000
  O   O13       1.0  0.6935105627313263  0.36088072578868235  0.676374519006643  1.0000
  O   O14       1.0  0.6769180993126582  0.6498146167294578  0.3266123411791283  1.0000
  O   O15       1.0  0.32315755722797945  0.6065990980907828  0.6729055179102656  1.0000
  O   O16       1.0  0.3391585692592755  0.37119306943522906  0.33031189982003883  1.0000
  F   F1        1.0  0.6947986743705599  0.37775054963126553  0.7909378235102976  1.0000
  F   F2        1.0  0.6800660278372062  0.6328077016104389  0.21137028149738765  1.0000
  F   F3        1.0  0.3238938008565384  0.6056786317699904  0.7889385923391783  1.0000
  F   F4        1.0  0.3381554255916869  0.3720112573541671  0.21390649387285515  1.0000
