data_image0
_chemical_formula_structural       Ag4H24Pd2C24N8O20
_chemical_formula_sum              "Ag4 H24 Pd2 C24 N8 O20"
_cell_length_a       4.643588351151147
_cell_length_b       7.724588681473945
_cell_length_c       25.90912657400278
_cell_angle_alpha    89.99996233216771
_cell_angle_beta     89.99997352433179
_cell_angle_gamma    105.15964422673095

_space_group_name_H-M_alt    "P 1"
_space_group_IT_number       1

loop_
  _space_group_symop_operation_xyz
  'x, y, z'

loop_
  _atom_site_type_symbol
  _atom_site_label
  _atom_site_symmetry_multiplicity
  _atom_site_fract_x
  _atom_site_fract_y
  _atom_site_fract_z
  _atom_site_occupancy
  Ag  Ag1       1.0  0.7996199840221009  0.7588939811659827  0.7923299594693773  1.0000
  Ag  Ag2       1.0  0.20038074799696642  0.7411089063450473  0.2923297269823024  1.0000
  Ag  Ag3       1.0  0.2003795366120116  0.24110798389188662  0.20767080493290277  1.0000
  Ag  Ag4       1.0  0.7996230762468032  0.2588930509265809  0.7076702654910392  1.0000
  H   H1        1.0  0.7400695580022969  0.15118816070759072  0.8798810239468722  1.0000
  H   H2        1.0  0.25992848141203234  0.3488083730028747  0.3798819232442838  1.0000
  H   H3        1.0  0.2599319073809523  0.8488084316231973  0.12011781063395688  1.0000
  H   H4        1.0  0.7400710392213411  0.6511935920544545  0.6201192271223802  1.0000
  H   H5        1.0  0.1299373711661858  0.2684926478131686  0.8795537399397872  1.0000
  H   H6        1.0  0.8700655628135933  0.23150522026139694  0.3795538397321181  1.0000
  H   H7        1.0  0.8700668357339153  0.7315052818574158  0.1204466384983149  1.0000
  H   H8        1.0  0.12993493019252603  0.7684940584310452  0.6204473106347663  1.0000
  H   H9        1.0  0.8784703297911348  0.3316090457451963  0.8362701131388518  1.0000
  H   H10       1.0  0.12153120609752217  0.16839028842701248  0.33627067341495126  1.0000
  H   H11       1.0  0.1215323150227405  0.6683902290562856  0.1637291074060414  1.0000
  H   H12       1.0  0.878473207860466  0.8316130100791524  0.663730090986995  1.0000
  H   H13       1.0  0.17700445333808554  0.012189961129500698  0.9672244144205279  1.0000
  H   H14       1.0  0.8229954069441658  0.48780632458080214  0.4672248537113148  1.0000
  H   H15       1.0  0.8229899669157205  0.9878053016455866  0.032775192089481195  1.0000
  H   H16       1.0  0.17700567577982435  0.5121942953488698  0.5327751387622754  1.0000
  H   H17       1.0  0.2490722556415576  0.9570850414914815  0.9020704433534519  1.0000
  H   H18       1.0  0.7509305950401168  0.542913507822348  0.40207059009645  1.0000
  H   H19       1.0  0.7509276476518068  0.042912895967504  0.0979291631560741  1.0000
  H   H20       1.0  0.24907048768460527  0.4570871121078639  0.5979290164127562  1.0000
  H   H21       1.0  0.4584652117696492  0.8996085456837335  0.9534496327458726  1.0000
  H   H22       1.0  0.5415341130042249  0.6003871814575206  0.4534501715335607  1.0000
  H   H23       1.0  0.5415313602882605  0.1003867131976861  0.0465499737640513  1.0000
  H   H24       1.0  0.4584642281985296  0.3996121011291294  0.546550592869032  1.0000
  Pd  Pd1       1.0  0.4999973387993748  0.4999969307413394  0.9999996763885759  1.0000
  Pd  Pd2       1.0  0.49999750397594045  0.999997929920255  0.5000002383526123  1.0000
  C   C1        1.0  0.9009509439238386  0.28171921713622783  0.8754910455755506  1.0000
  C   C2        1.0  0.09904555003673468  0.21827867397365  0.37549121194812324  1.0000
  C   C3        1.0  0.09904895936806206  0.7182787203216775  0.1245093328627291  1.0000
  C   C4        1.0  0.9009555326843284  0.7817219459538691  0.6245103243829888  1.0000
  C   C5        1.0  0.8452644217541945  0.4119575155959295  0.9143468412505271  1.0000
  C   C6        1.0  0.15473348707328677  0.0880389217905275  0.414347028598307  1.0000
  C   C7        1.0  0.15473489182349445  0.5880390806274391  0.08565276525915519  1.0000
  C   C8        1.0  0.8452691577391247  0.9119603530098669  0.5856529638753472  1.0000
  C   C9        1.0  0.03897507428261785  0.5893547840636371  0.9153526804490466  1.0000
  C   C10       1.0  0.9610200912287821  0.910641057337827  0.4153535094158869  1.0000
  C   C11       1.0  0.9610214977760236  0.4106404748183223  0.0846465400964931  1.0000
  C   C12       1.0  0.03898099149593997  0.08935956259238508  0.5846460970933194  1.0000
  C   C13       1.0  0.014756309014344856  0.7335632139395398  0.9479612539749596  1.0000
  C   C14       1.0  0.9852414744655249  0.766433873669456  0.4479621092735613  1.0000
  C   C15       1.0  0.985240852759972  0.2664333861780293  0.052037966570424  1.0000
  C   C16       1.0  0.014758046170037198  0.23356809138950044  0.552037883199958  1.0000
  C   C17       1.0  0.23585774278363647  0.9121162522965774  0.9424631646482808  1.0000
  C   C18       1.0  0.7641437754204715  0.5878795016554504  0.44246407338594906  1.0000
  C   C19       1.0  0.7641394189906804  0.08788034782099172  0.0575360558971028  1.0000
  C   C20       1.0  0.2358545657830078  0.4121197809317323  0.5575363050522668  1.0000
  C   C21       1.0  0.27719396374818916  0.6276787433864682  0.8796459440210214  1.0000
  C   C22       1.0  0.722801926769506  0.8723185390442295  0.3796464143231971  1.0000
  C   C23       1.0  0.7228010462212919  0.37231786062422845  0.12035366248883149  1.0000
  C   C24       1.0  0.277197593866063  0.1276834260147197  0.6203535781503291  1.0000
  N   N1        1.0  0.4793251893217983  0.6609551617352948  0.8512115504528452  1.0000
  N   N2        1.0  0.5206719883628352  0.8390448826349938  0.3512120440679353  1.0000
  N   N3        1.0  0.5206731518831447  0.3390441208529679  0.1487880560566097  1.0000
  N   N4        1.0  0.47932597018358075  0.16095842755269268  0.6487883343699039  1.0000
  N   N5        1.0  0.22020330790812886  0.11203171930515048  0.7848392503688046  1.0000
  N   N6        1.0  0.7797996022801853  0.3879704410778331  0.2848393269014551  1.0000
  N   N7        1.0  0.7797983645315367  0.8879702418601382  0.21516074210462927  1.0000
  N   N8        1.0  0.22020481167926678  0.6120328574294049  0.7151606655717373  1.0000
  O   O1        1.0  0.623526164817278  0.35439404849071104  0.9446122530422159  1.0000
  O   O2        1.0  0.376471629337061  0.14560230431007426  0.4446124106765339  1.0000
  O   O3        1.0  0.3764725590439966  0.6456012064965081  0.05538773943199969  1.0000
  O   O4        1.0  0.6235267118664183  0.8543969782771086  0.555387967761682  1.0000
  O   O5        1.0  0.8149814651870029  0.722837171299659  0.9827566827012646  1.0000
  O   O6        1.0  0.18501736588776635  0.7771625015348106  0.4827572163317271  1.0000
  O   O7        1.0  0.18501628630225742  0.27716077005298695  0.0172429238083396  1.0000
  O   O8        1.0  0.8149794132265598  0.2228381261811094  0.5172435480708018  1.0000
  O   O9        1.0  0.9810451437640069  0.05485415887564219  0.7569864908298171  1.0000
  O   O10       1.0  0.018957871956068535  0.4451480793501189  0.2569866192616033  1.0000
  O   O11       1.0  0.01895652867566603  0.9451478022896467  0.2430135016436168  1.0000
  O   O12       1.0  0.9810465420033765  0.5548552191571261  0.7430133732115819  1.0000
  O   O13       1.0  0.3876815283634229  0.265496165266832  0.7775105366733753  1.0000
  O   O14       1.0  0.6123198475042954  0.23450736072764758  0.2775106572645214  1.0000
  O   O15       1.0  0.6123179922728779  0.7345057997926572  0.22248906983576686  1.0000
  O   O16       1.0  0.38768026284622426  0.7654959455663785  0.7224897211732255  1.0000
  O   O17       1.0  0.27210161430527785  0.0068998916657961006  0.8188311415797855  1.0000
  O   O18       1.0  0.7279017568069436  0.49310351495289245  0.3188308157926727  1.0000
  O   O19       1.0  0.7279000581343879  0.9931020694994924  0.1811688508936413  1.0000
  O   O20       1.0  0.27210539867228073  0.5069011208962947  0.681169176680271  1.0000
