data_image0
_chemical_formula_structural       Zn6H38C44N4O26
_chemical_formula_sum              "Zn6 H38 C44 N4 O26"
_cell_length_a       18.704879570646415
_cell_length_b       18.65969518571503
_cell_length_c       18.87749582213641
_cell_angle_alpha    108.76281615744976
_cell_angle_beta     109.41294821914127
_cell_angle_gamma    109.74868423911649

_space_group_name_H-M_alt    "P 1"
_space_group_IT_number       1

loop_
  _space_group_symop_operation_xyz
  'x, y, z'

loop_
  _atom_site_type_symbol
  _atom_site_label
  _atom_site_symmetry_multiplicity
  _atom_site_fract_x
  _atom_site_fract_y
  _atom_site_fract_z
  _atom_site_occupancy
  Zn  Zn1       1.0  0.4550217832533646  0.5201796246052552  0.44373614985102694  1.0000
  Zn  Zn2       1.0  0.5678978070596868  0.5155953367448518  0.5718823793030692  1.0000
  Zn  Zn3       1.0  0.018749769640017244  0.9457155823127581  0.4308583128560313  1.0000
  Zn  Zn4       1.0  0.020246994445763295  0.067653618983023  0.5549569088367361  1.0000
  Zn  Zn5       1.0  0.44295070084891813  0.9381810588445703  0.010948789261220601  1.0000
  Zn  Zn6       1.0  0.5595132876947132  0.06866462344369492  0.008434536060448675  1.0000
  H   H1        1.0  0.208319991310006  0.3470993519611554  0.593204419954297  1.0000
  H   H2        1.0  0.4914554185077831  0.7283877354436682  0.6809188098229695  1.0000
  H   H3        1.0  0.8693796529381997  0.9200246592804575  0.6607764583350927  1.0000
  H   H4        1.0  0.8070286801656154  0.7887344510482138  0.47497334649207085  1.0000
  H   H5        1.0  0.662132276686961  0.7576568353097741  0.4783676014518149  1.0000
  H   H6        1.0  0.5970504623909179  0.3088990574700858  0.1933506537703309  1.0000
  H   H7        1.0  0.4842678478253503  0.17551180352267437  0.22823013799275316  1.0000
  H   H8        1.0  0.5866668780181145  0.31186815090694625  0.3838373653389482  1.0000
  H   H9        1.0  0.3584042520732637  0.08017935084853177  0.8466996276399426  1.0000
  H   H10       1.0  0.17568392032674746  0.3625542270696799  0.44116805861361996  1.0000
  H   H11       1.0  0.21109123740346544  0.9216403589953543  0.6249489005921233  1.0000
  H   H12       1.0  0.5985630519442893  0.8308830738903409  0.13408661686703738  1.0000
  H   H13       1.0  0.7336011087827005  0.0193071594574761  0.1958226401366899  1.0000
  H   H14       1.0  0.7415265900550949  0.8280217931918517  0.2026725825604316  1.0000
  H   H15       1.0  0.7984034783572367  0.017784571340016  0.32272163772637436  1.0000
  H   H16       1.0  0.29183069995580985  0.1811995732198923  0.5154269008247566  1.0000
  H   H17       1.0  0.3736269004201631  0.365795625365024  0.6154663689108373  1.0000
  H   H18       1.0  0.5247745193831505  0.7778435578230328  0.8934747270074436  1.0000
  H   H19       1.0  0.5900801145162974  0.88612728779448  0.8120952945627234  1.0000
  H   H20       1.0  0.5801957615494331  0.6860333511969828  0.8188189898038158  1.0000
  H   H21       1.0  0.7416392571878275  0.7073085970954693  0.6477225490015142  1.0000
  H   H22       1.0  0.8809838381433079  0.7679364036107684  0.7603543651985801  1.0000
  H   H23       1.0  0.9027849443066175  0.8726986884140687  0.7724975402184384  1.0000
  H   H24       1.0  0.9228206841432467  0.8052404849346219  0.6992846446333443  1.0000
  H   H25       1.0  0.5422536411583323  0.40013144090502806  0.21438813453641345  1.0000
  H   H26       1.0  0.21065072960727357  0.8388566448662973  0.8037285238892691  1.0000
  H   H27       1.0  0.07075754508728944  0.7960686488465001  0.7119388736683444  1.0000
  H   H28       1.0  0.10713643931602229  0.8484973938503729  0.6564478820383  1.0000
  H   H29       1.0  0.10701070643726501  0.9099381312204002  0.7499367563434374  1.0000
  H   H30       1.0  0.19516605688885846  0.1132983749929792  0.7141071122553553  1.0000
  H   H31       1.0  0.23393609381560052  0.20394933096738302  0.8552319694765912  1.0000
  H   H32       1.0  0.33834982702858696  0.21234697886007584  0.8839449113231336  1.0000
  H   H33       1.0  0.2575519538371013  0.1307171400564258  0.8871130945374829  1.0000
  H   H34       1.0  0.05595038280365829  0.11255778014247399  0.3123093108480574  1.0000
  H   H35       1.0  0.2720852759640948  0.22248926712649114  0.3167141615442616  1.0000
  H   H36       1.0  0.2580390005871037  0.0800241174203151  0.2687890550713447  1.0000
  H   H37       1.0  0.15871460061318737  0.06999199136632228  0.266329908607453  1.0000
  H   H38       1.0  0.24007783016507736  0.0757478113037919  0.3542886986727466  1.0000
  C   C1        1.0  0.5246972355454887  0.6265556694448409  0.646394614717117  1.0000
  C   C2        1.0  0.26771751120065085  0.22291674155673752  0.49955663796886535  1.0000
  C   C3        1.0  0.31113177737298503  0.32395000370012644  0.5554178633908717  1.0000
  C   C4        1.0  0.29372632364030693  0.33443435040708636  0.47346803890116  1.0000
  C   C5        1.0  0.5458289887499105  0.7896945784719662  0.8487502092163551  1.0000
  C   C6        1.0  0.5614007362748837  0.8658099456072891  0.8487878935090263  1.0000
  C   C7        1.0  0.5542137186904766  0.7220612927440085  0.7931548989165973  1.0000
  C   C8        1.0  0.5240929355559771  0.6979644502489322  0.7090907649523642  1.0000
  C   C9        1.0  0.8289933151819825  0.8585987126947928  0.5999389204926968  1.0000
  C   C10       1.0  0.8435541831090914  0.8515957555650145  0.5337102964825674  1.0000
  C   C11       1.0  0.7628875011435454  0.7824120287424564  0.593640160069448  1.0000
  C   C12       1.0  0.36460190245438884  0.3991561407930889  0.4714534080854874  1.0000
  C   C13       1.0  0.6791309490849216  0.7337963934517973  0.5233316166761026  1.0000
  C   C14       1.0  0.5637249602802471  0.28730357718043115  0.2267090527066387  1.0000
  C   C15       1.0  0.5219627002212375  0.2013905108360134  0.20029814663594425  1.0000
  C   C16       1.0  0.5607289911671813  0.3533350451643216  0.291495728766037  1.0000
  C   C17       1.0  0.5685397177225157  0.3559130842183009  0.3665888114860678  1.0000
  C   C18       1.0  0.13983878508717845  0.9818459488701237  0.5785971045127309  1.0000
  C   C19       1.0  0.1163535632367569  0.14495331752383578  0.495210854173166  1.0000
  C   C20       1.0  0.88373311101423  0.9668561779406915  0.3591610524822497  1.0000
  C   C21       1.0  0.912448937493032  0.9211477919772123  0.5346987762018144  1.0000
  C   C22       1.0  0.5964707632636461  0.9695857765364124  0.11417508198226038  1.0000
  C   C23       1.0  0.5565082200403851  0.4162426304820813  0.4279944972337546  1.0000
  C   C24       1.0  0.5440060061930154  0.9269454985362984  0.9029881870208097  1.0000
  C   C25       1.0  0.3548368191330908  0.9651604835361666  0.8883542678745043  1.0000
  C   C26       1.0  0.5196257172598634  0.1360512190602208  0.12843131555382567  1.0000
  C   C27       1.0  0.29478152241094335  0.022291571574115206  0.7987072133021156  1.0000
  C   C28       1.0  0.2799046315324745  0.9527932428041339  0.8132565324780214  1.0000
  C   C29       1.0  0.2380530775248886  0.03259587119818969  0.7326769841967147  1.0000
  C   C30       1.0  0.19686031053607428  0.974225174446815  0.6446687245184461  1.0000
  C   C31       1.0  0.6626317240547833  0.8899445265257951  0.1707968515905661  1.0000
  C   C32       1.0  0.66951154244596  0.9620840804180375  0.1653463738950903  1.0000
  C   C33       1.0  0.7388854431929347  0.8884924265171322  0.22322139824362347  1.0000
  C   C34       1.0  0.6115220541069419  0.6549090038040504  0.5078959942762821  1.0000
  C   C35       1.0  0.8044981672471109  0.9598691218886232  0.2983698977761191  1.0000
  C   C36       1.0  0.20216625646849457  0.32315117301897095  0.4590719634386317  1.0000
  C   C37       1.0  0.2206444808283905  0.31465336765811003  0.542797718667387  1.0000
  C   C38       1.0  0.1772806547912751  0.21378693230645507  0.48849677529391033  1.0000
  C   C39       1.0  0.15820022579061546  0.22222774323003597  0.4037419592214774  1.0000
  C   C40       1.0  0.2508513519670785  0.2317997353963932  0.4163899892205761  1.0000
  C   C41       1.0  0.8782385445315624  0.8048614722589064  0.7255326889387271  1.0000
  C   C42       1.0  0.11832047671881443  0.8564213643369741  0.7201567018176147  1.0000
  C   C43       1.0  0.2676904254493664  0.16603776892284117  0.8514499247013629  1.0000
  C   C44       1.0  0.2299554033686064  0.10080356109827453  0.3086517636084238  1.0000
  N   N1        1.0  0.7886680780173876  0.7639555929517315  0.6583832571911328  1.0000
  N   N2        1.0  0.20531757981963494  0.8747140981805402  0.7737382279172988  1.0000
  N   N3        1.0  0.232617333790202  0.10600873433453019  0.7619636833188819  1.0000
  N   N4        1.0  0.2754167593878165  0.19615571769800508  0.3566582979505738  1.0000
  O   O1        1.0  0.47539200726329506  0.6005019282996004  0.567755135087239  1.0000
  O   O2        1.0  0.12200320394160968  0.0447863972473499  0.5997940799858482  1.0000
  O   O3        1.0  0.0888752712487673  0.06624706151266929  0.44151966518287367  1.0000
  O   O4        1.0  0.09582552703353288  0.16881093174122702  0.5541205244810994  1.0000
  O   O5        1.0  0.9122634212714189  0.915816635703834  0.3322688842253993  1.0000
  O   O6        1.0  0.9184075572538786  0.025975049680347702  0.4365175845728045  1.0000
  O   O7        1.0  0.9351894319445435  0.8948390484711838  0.4796123870944199  1.0000
  O   O8        1.0  0.9450633375968422  0.0022019720748716015  0.5891617007431262  1.0000
  O   O9        1.0  0.5170630052306606  0.9129052744744897  0.08736625083355416  1.0000
  O   O10       1.0  0.6172010608300056  0.0331307808755028  0.09882655235945487  1.0000
  O   O11       1.0  0.4876578616205408  0.8963487828573238  0.9241291070778103  1.0000
  O   O12       1.0  0.5740377972201216  0.5960371424579094  0.6740463925892967  1.0000
  O   O13       1.0  0.5876634384171312  0.0088984823315812  0.9264313748558093  1.0000
  O   O14       1.0  0.3354825700264427  0.9106797130444022  0.9166237600446716  1.0000
  O   O15       1.0  0.4307485158127449  0.0271904115749848  0.9196077643501608  1.0000
  O   O16       1.0  0.46850368325200975  0.0561762078184529  0.10169895214907841  1.0000
  O   O17       1.0  0.5677970947103291  0.1642743132001669  0.09721063179985377  1.0000
  O   O18       1.0  0.34546230768403063  0.4281235588444403  0.4182413257407091  1.0000
  O   O19       1.0  0.44172619409364694  0.42122190671540233  0.5237356419548076  1.0000
  O   O20       1.0  0.5034456343779539  0.4411555881220082  0.39902597483857954  1.0000
  O   O21       1.0  0.5995790515001431  0.43845245175604936  0.5084381131595421  1.0000
  O   O22       1.0  0.5329591496787031  0.6198505948008944  0.44473935605598286  1.0000
  O   O23       1.0  0.6310567655726728  0.621616452261428  0.5570920499581716  1.0000
  O   O24       1.0  0.10596454736246844  0.9259271321791759  0.4976855851841078  1.0000
  O   O25       1.0  0.550957147789987  0.41522033158357635  0.2721713766707765  1.0000
  O   O26       1.0  0.07798762045441521  0.17413458947218882  0.32855224009894357  1.0000
