data_image0
_chemical_formula_structural       Cu2H32C20N6Cl2O6
_chemical_formula_sum              "Cu2 H32 C20 N6 Cl2 O6"
_cell_length_a       5.585468140498397
_cell_length_b       10.209876098328328
_cell_length_c       10.765806771332967
_cell_angle_alpha    89.99964067677301
_cell_angle_beta     89.999602719683
_cell_angle_gamma    94.71124816306772

_space_group_name_H-M_alt    "P 1"
_space_group_IT_number       1

loop_
  _space_group_symop_operation_xyz
  'x, y, z'

loop_
  _atom_site_type_symbol
  _atom_site_label
  _atom_site_symmetry_multiplicity
  _atom_site_fract_x
  _atom_site_fract_y
  _atom_site_fract_z
  _atom_site_occupancy
  Cu  Cu1       1.0  0.8898175743968936  0.33590120712849375  0.6034580548654207  1.0000
  Cu  Cu2       1.0  0.11018991214703526  0.6640860166000876  0.10345497844568292  1.0000
  H   H1        1.0  0.15500281567455693  0.4764227503696505  0.34827689541887713  1.0000
  H   H2        1.0  0.8449840481521493  0.5235713452696942  0.8482752437191439  1.0000
  H   H3        1.0  0.44829383986862587  0.3369680948061173  0.5696766661723986  1.0000
  H   H4        1.0  0.5517047802964967  0.6630404034932698  0.0696761726435042  1.0000
  H   H5        1.0  0.6690166229246871  0.5530073165950783  0.41741917947166485  1.0000
  H   H6        1.0  0.3309748747616794  0.4469934696901846  0.9174235710068503  1.0000
  H   H7        1.0  0.24731273809563697  0.5580752810797591  0.5975418101731833  1.0000
  H   H8        1.0  0.7526853803146807  0.44191996807138173  0.0975393184564055  1.0000
  H   H9        1.0  0.3542654451905348  0.6970577406290063  0.34857563491995347  1.0000
  H   H10       1.0  0.6457433830015447  0.3029391671820462  0.848577480938289  1.0000
  H   H11       1.0  0.4044968245659534  0.7680701100156071  0.49823365019442906  1.0000
  H   H12       1.0  0.5955061933237502  0.23192532604887364  0.9982291290017004  1.0000
  H   H13       1.0  0.10552338067028438  0.7193645088405916  0.44788536883933017  1.0000
  H   H14       1.0  0.8944899580551536  0.280638588321267  0.9478845386273065  1.0000
  H   H15       1.0  0.7064976049945743  0.35630488495004903  0.32912719706581584  1.0000
  H   H16       1.0  0.2935150473671015  0.6436933070050443  0.8291240502164927  1.0000
  H   H17       1.0  0.4049634518482251  0.2865468365851811  0.3523990152484444  1.0000
  H   H18       1.0  0.5950226110266358  0.713453097693332  0.8523958874843061  1.0000
  H   H19       1.0  0.7596973481070394  0.8647465238014295  0.4116120477645069  1.0000
  H   H20       1.0  0.24030585652145936  0.13524936913292152  0.9116115084294378  1.0000
  H   H21       1.0  0.23555902822815264  0.03150514870522161  0.3227117098107612  1.0000
  H   H22       1.0  0.7644312355221389  0.9684982053131533  0.8227007412675608  1.0000
  H   H23       1.0  0.4240787717252914  0.9288636443835896  0.24192511029799144  1.0000
  H   H24       1.0  0.5759142275975648  0.0711341513961514  0.7419286172045718  1.0000
  H   H25       1.0  0.4255838995728213  0.09923118400812572  0.2039230397762637  1.0000
  H   H26       1.0  0.5744084710251088  0.9007731504764255  0.7039270943793028  1.0000
  H   H27       1.0  0.2653289740778959  0.997337737515501  0.549313763672096  1.0000
  H   H28       1.0  0.7346769982238683  0.002661217633253402  0.049310125633290604  1.0000
  H   H29       1.0  0.038706425155716324  0.8961988136032419  0.6265375797294938  1.0000
  H   H30       1.0  0.961298279870988  0.10380378249679013  0.1265410602019088  1.0000
  H   H31       1.0  0.11725782150318052  0.06089459733372142  0.6786994074160192  1.0000
  H   H32       1.0  0.8827390665623582  0.9391150481373957  0.1786928268685131  1.0000
  C   C1        1.0  0.714568454101247  0.5827845119070219  0.6139050396366273  1.0000
  C   C2        1.0  0.28542596716403773  0.41719966635628936  0.11391585550187242  1.0000
  C   C3        1.0  0.5751446931778759  0.5185714816530763  0.5029179166520308  1.0000
  C   C4        1.0  0.42485319542528543  0.48143222990203327  0.002919614800220001  1.0000
  C   C5        1.0  0.311311800328994  0.5591602379943055  0.5009060135149143  1.0000
  C   C6        1.0  0.6887104673920703  0.44083942342881954  0.0009058093329841001  1.0000
  C   C7        1.0  0.2926982779182481  0.6945039983986732  0.4455560307971069  1.0000
  C   C8        1.0  0.7072909812859152  0.30549436580349015  0.9455565388347438  1.0000
  C   C9        1.0  0.5838637092884013  0.3018911138071445  0.3945977777361591  1.0000
  C   C10       1.0  0.4161212295230428  0.6981130435474014  0.8945986026967319  1.0000
  C   C11       1.0  0.6082420625268554  0.0540809106070128  0.3731748835691135  1.0000
  C   C12       1.0  0.3917645416355882  0.945913633867548  0.873178446570428  1.0000
  C   C13       1.0  0.7578109052144271  0.9690691447484598  0.42943251343540123  1.0000
  C   C14       1.0  0.24217925699290532  0.0309344008864443  0.9294390911359047  1.0000
  C   C15       1.0  0.9050383935538094  0.04412279451223361  0.5133454316773652  1.0000
  C   C16       1.0  0.09496073878278112  0.955877784766898  0.013341442948188799  1.0000
  C   C17       1.0  0.4139457817113339  0.027723745950268604  0.2800984096307815  1.0000
  C   C18       1.0  0.5860492379763399  0.972286190566919  0.7801007342068758  1.0000
  C   C19       1.0  0.09140528985746231  0.9973743703940909  0.5972095085835534  1.0000
  C   C20       1.0  0.9085962927102643  0.002630700416354198  0.09720562258517164  1.0000
  N   N1        1.0  0.5855953445004544  0.37502937586722146  0.511531984373292  1.0000
  N   N2        1.0  0.41441648295827355  0.6249721399029511  0.011523950065488002  1.0000
  N   N3        1.0  0.851067327211652  0.17051648348795823  0.5081032727486416  1.0000
  N   N4        1.0  0.14892953568912762  0.82948124570477  0.008100411683891202  1.0000
  N   N5        1.0  0.6693641624755741  0.1746310237841797  0.4229119500790617  1.0000
  N   N6        1.0  0.33062552415038476  0.8253696821633837  0.9229118631827121  1.0000
  Cl  Cl1       1.0  0.2067265259589064  0.3066554304259412  0.7256211636451583  1.0000
  Cl  Cl2       1.0  0.7932729103854754  0.6933484998645056  0.22561726547726127  1.0000
  O   O1        1.0  0.8370631278622723  0.5052952377317863  0.6820926218678596  1.0000
  O   O2        1.0  0.16294816965332615  0.49470442611608717  0.18208405513180995  1.0000
  O   O3        1.0  0.7069367827438882  0.7012133450078438  0.6368844710633894  1.0000
  O   O4        1.0  0.2930873258535697  0.298808635009145  0.1368865335307987  1.0000
  O   O5        1.0  0.15496499321238136  0.46086756053325234  0.4394822997624957  1.0000
  O   O6        1.0  0.8450408905697698  0.5391337544536369  0.9394899813299349  1.0000
