data_image0
_chemical_formula_structural       Cd2H30C40S4N10O12
_chemical_formula_sum              "Cd2 H30 C40 S4 N10 O12"
_cell_length_a       7.207243781418167
_cell_length_b       11.538196042331776
_cell_length_c       14.821277412017407
_cell_angle_alpha    108.94793462199503
_cell_angle_beta     103.22074808393018
_cell_angle_gamma    92.89410354672

_space_group_name_H-M_alt    "P 1"
_space_group_IT_number       1

loop_
  _space_group_symop_operation_xyz
  'x, y, z'

loop_
  _atom_site_type_symbol
  _atom_site_label
  _atom_site_symmetry_multiplicity
  _atom_site_fract_x
  _atom_site_fract_y
  _atom_site_fract_z
  _atom_site_occupancy
  Cd  Cd1       1.0  0.4999988998243553  0.4999978914696753  0.5000005935622056  1.0000
  Cd  Cd2       1.0  0.4999994830432329  0.9999975798665801  0.4999996330714751  1.0000
  H   H1        1.0  0.9401750010249331  0.5605710135549201  0.6238248666877055  1.0000
  H   H2        1.0  0.0598230311032282  0.43943217762034686  0.3761775544532  1.0000
  H   H3        1.0  0.15638926523066493  0.5868332196299164  0.7907014142506554  1.0000
  H   H4        1.0  0.8436138549472361  0.41317364812491775  0.2093011461325531  1.0000
  H   H5        1.0  0.007408576971926095  0.5636982126807695  0.9214580112397996  1.0000
  H   H6        1.0  0.9925953566883906  0.436305869768141  0.07854527902315306  1.0000
  H   H7        1.0  0.4525463783858045  0.4893838663419459  0.7104409731828127  1.0000
  H   H8        1.0  0.5474569385499777  0.5106174404049213  0.289562218972911  1.0000
  H   H9        1.0  0.07996217838385891  0.8345934712303561  0.38131280691094827  1.0000
  H   H10       1.0  0.920038849870295  0.16540415066450714  0.6186858256797763  1.0000
  H   H11       1.0  0.8779046909167934  0.7299309618671116  0.20856022379135192  1.0000
  H   H12       1.0  0.12209127393127522  0.2700694668550767  0.7914392458231347  1.0000
  H   H13       1.0  0.030594207144069713  0.704321614301179  0.0680949253652656  1.0000
  H   H14       1.0  0.9693989040729605  0.29567883241372067  0.931903563419347  1.0000
  H   H15       1.0  0.5619039956106847  0.8906483758807296  0.2847827845293692  1.0000
  H   H16       1.0  0.4380968180248034  0.10934832240016587  0.715214915166854  1.0000
  H   H17       1.0  0.38196317226466914  0.46933461309120605  0.9281104558845641  1.0000
  H   H18       1.0  0.6180411456407314  0.5306648368238525  0.07189169846912334  1.0000
  H   H19       1.0  0.6443522781060054  0.8199350464076715  0.056250504328531216  1.0000
  H   H20       1.0  0.355648372685934  0.18006720680601512  0.9437499393155308  1.0000
  H   H21       1.0  0.5671989008795252  0.11256371733465188  0.10808800086726929  1.0000
  H   H22       1.0  0.43279768747594727  0.8874394858745516  0.8919122419985186  1.0000
  H   H23       1.0  0.704915013942923  0.08469143071594942  0.2529088766034421  1.0000
  H   H24       1.0  0.29508110696583156  0.9153034442884831  0.747087173919134  1.0000
  H   H25       1.0  0.311369051994113  0.10792304192439417  0.2701297478015334  1.0000
  H   H26       1.0  0.6886285576795855  0.8920783008078952  0.7298714826944276  1.0000
  H   H27       1.0  0.8909298950690997  0.1422081436989657  0.024431414747944313  1.0000
  H   H28       1.0  0.10907362043180062  0.8578005773589865  0.97556963570392  1.0000
  H   H29       1.0  0.039590975046266394  0.08291897128974308  0.345988569832528  1.0000
  H   H30       1.0  0.9604051526453505  0.9170759024996541  0.65400815583412  1.0000
  C   C1        1.0  0.6678581346749654  0.22436412863591929  0.4248458030948825  1.0000
  C   C2        1.0  0.3321404106274954  0.7756288811478598  0.5751493624685581  1.0000
  C   C3        1.0  0.258905747662844  0.24932235696743996  0.5198218076517804  1.0000
  C   C4        1.0  0.7411031704969703  0.7506724449675275  0.4801742681687884  1.0000
  C   C5        1.0  0.882116418860342  0.5503467457754425  0.6830566122203762  1.0000
  C   C6        1.0  0.11788239961877174  0.44965366495403464  0.3169438382239846  1.0000
  C   C7        1.0  0.0011843682037024545  0.5650172186386369  0.7755696486807652  1.0000
  C   C8        1.0  0.9988185577041337  0.43498872185712384  0.2244340042401518  1.0000
  C   C9        1.0  0.9179844695751032  0.5527342132645998  0.8484861090320309  1.0000
  C   C10       1.0  0.08202351973881152  0.4472689204038289  0.1515167068651238  1.0000
  C   C11       1.0  0.7175741057423721  0.5257146406801494  0.8264551940213494  1.0000
  C   C12       1.0  0.2824316423699856  0.4742847996310289  0.1735477883193113  1.0000
  C   C13       1.0  0.6087401538844475  0.5112306220469803  0.7312694602293065  1.0000
  C   C14       1.0  0.39126560101077257  0.4887688170491699  0.2687341972554265  1.0000
  C   C15       1.0  0.6243552643190852  0.5149484138818252  0.9035197499004398  1.0000
  C   C16       1.0  0.37565089946487973  0.4850528760873657  0.09648374794108606  1.0000
  C   C17       1.0  0.14131377937623307  0.8215890578039119  0.3184232875183141  1.0000
  C   C18       1.0  0.8586847727090969  0.1784039507648387  0.6815725531891985  1.0000
  C   C19       1.0  0.029458108773340496  0.7627968239345931  0.22200823205118778  1.0000
  C   C20       1.0  0.9705386492085496  0.23720082312677693  0.7779899420108265  1.0000
  C   C21       1.0  0.11435629731263221  0.7488453119886672  0.14435914749485332  1.0000
  C   C22       1.0  0.8856420851462802  0.25115325272791006  0.8556387620164261  1.0000
  C   C23       1.0  0.3097420826614082  0.7932230318793567  0.16587848059907617  1.0000
  C   C24       1.0  0.6902577546481158  0.20678200664025323  0.8341212331652414  1.0000
  C   C25       1.0  0.4104838178872185  0.8531056427298508  0.2647025747116416  1.0000
  C   C26       1.0  0.5895162229630557  0.1468938335667502  0.7352984459692635  1.0000
  C   C27       1.0  0.40702706337176403  0.7760237978560623  0.08461835635792163  1.0000
  C   C28       1.0  0.5929755961422815  0.22397474047896535  0.9153806868261469  1.0000
  C   C29       1.0  0.826616777672058  0.09679942854585019  0.22332581748994332  1.0000
  C   C30       1.0  0.17338260575647274  0.9031972793389184  0.7766710542193138  1.0000
  C   C31       1.0  0.013311881496370904  0.0945421946559861  0.2742415373729443  1.0000
  C   C32       1.0  0.9866854864271917  0.9054582293224768  0.7257560596522339  1.0000
  C   C33       1.0  0.16290684160883023  0.10797127443722587  0.2320344135836976  1.0000
  C   C34       1.0  0.8370964414126192  0.8920300383848173  0.7679654028516653  1.0000
  C   C35       1.0  0.11955192229271461  0.12372132089326017  0.1399721011239521  1.0000
  C   C36       1.0  0.88044835781988  0.8762855624242151  0.8600308287175196  1.0000
  C   C37       1.0  0.9280030419370108  0.1272099842421639  0.0947589162568505  1.0000
  C   C38       1.0  0.07199539229701907  0.8727950590211718  0.9052426700967827  1.0000
  C   C39       1.0  0.2728388773732392  0.13751256743274345  0.08997352506004569  1.0000
  C   C40       1.0  0.7271660886832194  0.8624961403762296  0.9100303788110011  1.0000
  S   S1        1.0  0.7501741404252372  0.3555090746957106  0.41991329359184704  1.0000
  S   S2        1.0  0.24981955608981113  0.6444876655293754  0.5800836418898642  1.0000
  S   S3        1.0  0.1887368611317513  0.11920640477170247  0.5314089213515345  1.0000
  S   S4        1.0  0.8112586566181932  0.880785692100609  0.4685883813519495  1.0000
  N   N1        1.0  0.608913781835085  0.1267663561023085  0.4250701410453459  1.0000
  N   N2        1.0  0.3910727975595236  0.8732304260669606  0.574926030221846  1.0000
  N   N3        1.0  0.30462255183115866  0.34349691719860687  0.5102355818840962  1.0000
  N   N4        1.0  0.695379292393227  0.6564914311232924  0.489765504896603  1.0000
  N   N5        1.0  0.6897019144263012  0.523724517198204  0.6614878568509042  1.0000
  N   N6        1.0  0.3102999655196612  0.47627680036757153  0.3385138321737742  1.0000
  N   N7        1.0  0.3275184875662305  0.8673722508807058  0.3391552831076083  1.0000
  N   N8        1.0  0.6724778615269217  0.1326235453076237  0.6608430505976131  1.0000
  N   N9        1.0  0.7840173066482308  0.11370789341466286  0.13550772652794754  1.0000
  N   N10       1.0  0.21598475400206504  0.886294353840256  0.8644915196708852  1.0000
  O   O1        1.0  0.43912419300049527  0.4712930530937526  0.8707062361252369  1.0000
  O   O2        1.0  0.560881333710327  0.5287054648184935  0.12929513817685032  1.0000
  O   O3        1.0  0.7170859024908721  0.5444955730695467  0.9914963617928976  1.0000
  O   O4        1.0  0.2829186232503318  0.45550480167451457  0.008506050311225923  1.0000
  O   O5        1.0  0.589977394508587  0.828262813020366  0.11588225328589624  1.0000
  O   O6        1.0  0.41001614594577523  0.17173948092246857  0.8841181012877257  1.0000
  O   O7        1.0  0.3243735453670098  0.7183889789954632  0.9973604789066641  1.0000
  O   O8        1.0  0.6756232576071285  0.2816151478277078  0.002640696853624974  1.0000
  O   O9        1.0  0.4308623081793428  0.0977288182278713  0.12463419478010711  1.0000
  O   O10       1.0  0.5691426196677297  0.9022734086042659  0.875367382536737  1.0000
  O   O11       1.0  0.24233842115580026  0.18132811897608284  0.022204560733122495  1.0000
  O   O12       1.0  0.7576726474857481  0.8186824061505862  0.9777997948663426  1.0000
