data_image0
_chemical_formula_structural       Li4H40C24N8Cl4O8
_chemical_formula_sum              "Li4 H40 C24 N8 Cl4 O8"
_cell_length_a       8.052275641438833
_cell_length_b       9.055582027354065
_cell_length_c       12.044326822001374
_cell_angle_alpha    90.00003062872311
_cell_angle_beta     89.99994925099027
_cell_angle_gamma    102.08313413475184

_space_group_name_H-M_alt    "P 1"
_space_group_IT_number       1

loop_
  _space_group_symop_operation_xyz
  'x, y, z'

loop_
  _atom_site_type_symbol
  _atom_site_label
  _atom_site_symmetry_multiplicity
  _atom_site_fract_x
  _atom_site_fract_y
  _atom_site_fract_z
  _atom_site_occupancy
  Li  Li1       1.0  0.5517853240386474  0.10907510641911239  0.592825020576079  1.0000
  Li  Li2       1.0  0.9482167043892672  0.39092533090166637  0.09282524299112539  1.0000
  Li  Li3       1.0  0.4482153198072681  0.8909256662848934  0.4071751479679691  1.0000
  Li  Li4       1.0  0.05178243362053088  0.6090743102936359  0.9071757558195513  1.0000
  H   H1        1.0  0.3655638317369779  0.8987152203844034  0.9482406977392442  1.0000
  H   H2        1.0  0.13443485095173469  0.6012836490596245  0.44824015939586553  1.0000
  H   H3        1.0  0.6344373389792325  0.10128781093782642  0.051759470805102084  1.0000
  H   H4        1.0  0.8655642870590724  0.3987159921352799  0.551759178881987  1.0000
  H   H5        1.0  0.366890963909306  0.9271259893409011  0.8022624324514068  1.0000
  H   H6        1.0  0.13310815890384486  0.5728739384056852  0.3022627137529739  1.0000
  H   H7        1.0  0.633109679937114  0.0728747833628987  0.1977369058262255  1.0000
  H   H8        1.0  0.8668900001416517  0.42712682989854045  0.6977366245253904  1.0000
  H   H9        1.0  0.38684601248975536  0.16645912058864099  0.9840158938029617  1.0000
  H   H10       1.0  0.11315394963585133  0.33353980833447144  0.4840154613161046  1.0000
  H   H11       1.0  0.6131546313566645  0.8335416521151588  0.0159834444746778  1.0000
  H   H12       1.0  0.8868451883754602  0.6664598328602266  0.5159830466953393  1.0000
  H   H13       1.0  0.4933163416763335  0.1854417060890796  0.8539380275239097  1.0000
  H   H14       1.0  0.00668377789342863  0.3145571595615736  0.3539376504611481  1.0000
  H   H15       1.0  0.5066833232052801  0.8145601937238497  0.1460604804878329  1.0000
  H   H16       1.0  0.9933166025178438  0.6854424838331143  0.646061687816342  1.0000
  H   H17       1.0  0.1925599898733168  0.29056097169767986  0.8942317968518123  1.0000
  H   H18       1.0  0.3074415867607455  0.20943904506171412  0.3942320297564308  1.0000
  H   H19       1.0  0.8074406539725983  0.7094398010063259  0.10576837169223549  1.0000
  H   H20       1.0  0.6925575512495569  0.790560596133389  0.6057681387878304  1.0000
  H   H21       1.0  0.24413864731105414  0.23056396793904113  0.7597800875172283  1.0000
  H   H22       1.0  0.2558613227904302  0.2694337226023507  0.2597803750537651  1.0000
  H   H23       1.0  0.7558592482992879  0.7694356710560726  0.24021925076099385  1.0000
  H   H24       1.0  0.744138794185183  0.730564791483424  0.7402197934899843  1.0000
  H   H25       1.0  0.8286623329984053  0.976314528088608  0.8890351087252026  1.0000
  H   H26       1.0  0.6713380141628208  0.5236860112373948  0.38903534763957737  1.0000
  H   H27       1.0  0.1713380474123625  0.023685115306278696  0.110965059818696  1.0000
  H   H28       1.0  0.3286611238474891  0.4763136299577085  0.6109648209046908  1.0000
  H   H29       1.0  0.8829483997745625  0.17751400771784637  0.8829557216273684  1.0000
  H   H30       1.0  0.617052035083688  0.32248656852836893  0.382955282394029  1.0000
  H   H31       1.0  0.11705224407185716  0.8224867649859534  0.117043616650264  1.0000
  H   H32       1.0  0.3829458605266609  0.6775130704667519  0.6170440558841932  1.0000
  H   H33       1.0  0.06050471624364209  0.04022297029085559  0.6504622464403055  1.0000
  H   H34       1.0  0.4394944072091392  0.45977579418546816  0.1504625016643217  1.0000
  H   H35       1.0  0.9394929159305504  0.9597755393955509  0.3495387523705915  1.0000
  H   H36       1.0  0.5605072156015822  0.5402238514094009  0.849538497145616  1.0000
  H   H37       1.0  0.8880562986156307  0.05523093120687152  0.5638120807495639  1.0000
  H   H38       1.0  0.611943280128031  0.44476948760191704  0.0638125239061935  1.0000
  H   H39       1.0  0.1119443452302847  0.9447698414971273  0.43618808779447693  1.0000
  H   H40       1.0  0.3880558578822715  0.5552301535931862  0.9361876446380675  1.0000
  C   C1        1.0  0.13024207375294594  0.9334303860175622  0.8776025384236661  1.0000
  C   C2        1.0  0.3697569578703224  0.5665695783757202  0.3776018467968427  1.0000
  C   C3        1.0  0.8697583066578217  0.0665692573773242  0.12239763012023269  1.0000
  C   C4        1.0  0.6302409377400264  0.4334300606193935  0.6223974914813795  1.0000
  C   C5        1.0  0.32202141583250926  0.9643175617712533  0.8818667361292823  1.0000
  C   C6        1.0  0.1779773471937247  0.5356812753873399  0.38186697592836794  1.0000
  C   C7        1.0  0.6779792280139104  0.035683210932546706  0.1181326021483571  1.0000
  C   C8        1.0  0.8220205484166173  0.4643183636077736  0.6181323623498471  1.0000
  C   C9        1.0  0.37349576394274203  0.13663514329581264  0.8955186253163132  1.0000
  C   C10       1.0  0.1265045687337008  0.36336487188957284  0.3955181968991041  1.0000
  C   C11       1.0  0.6265048799031732  0.8633656294081862  0.1044815432277275  1.0000
  C   C12       1.0  0.8734948327122538  0.6366358986144364  0.6044811413788976  1.0000
  C   C13       1.0  0.222708903532812  0.19565722450228412  0.8471764200454356  1.0000
  C   C14       1.0  0.27729148765583733  0.30434276716866293  0.3471767089084209  1.0000
  C   C15       1.0  0.7772917403131034  0.8043435482017147  0.15282374849860497  1.0000
  C   C16       1.0  0.7227076503549696  0.695656874026234  0.6528226293694317  1.0000
  C   C17       1.0  0.9058818824076198  0.0729899070996893  0.8448531077326819  1.0000
  C   C18       1.0  0.5941185985693949  0.427010650612658  0.3448527240474775  1.0000
  C   C19       1.0  0.09411849800314102  0.9270097362951976  0.1551470608112169  1.0000
  C   C20       1.0  0.40588080287655975  0.5729901198913511  0.6551466142305244  1.0000
  C   C21       1.0  0.8369680591979857  0.06769663180443083  0.7273438614319899  1.0000
  C   C22       1.0  0.6630313216094238  0.43230386654947495  0.2273442693318088  1.0000
  C   C23       1.0  0.16303179434248002  0.932300752972232  0.2726563071116104  1.0000
  C   C24       1.0  0.3369695856716461  0.5676980354636357  0.7726558992123883  1.0000
  N   N1        1.0  0.0815275438654837  0.064777577493274  0.8561507852036739  1.0000
  N   N2        1.0  0.41847159406029993  0.4352224163431871  0.3561510430174266  1.0000
  N   N3        1.0  0.9184730999804316  0.9352231952107246  0.14384938334037398  1.0000
  N   N4        1.0  0.5815263015495447  0.5647772226521326  0.6438491255272041  1.0000
  N   N5        1.0  0.9407782336927468  0.05976742410376799  0.6418637507894117  1.0000
  N   N6        1.0  0.5592215140140481  0.4402341619798307  0.141863393077422  1.0000
  N   N7        1.0  0.059218419516135275  0.9402322126919601  0.35813724802199687  1.0000
  N   N8        1.0  0.4407791298313626  0.5597666107243741  0.8581376057330347  1.0000
  Cl  Cl1       1.0  0.2926747545882052  0.937305376149688  0.5748591287044249  1.0000
  Cl  Cl2       1.0  0.20732313763522112  0.5626933094742698  0.07485853170566509  1.0000
  Cl  Cl3       1.0  0.707325625822058  0.06269426724540492  0.4251418701058824  1.0000
  Cl  Cl4       1.0  0.7926747579741188  0.4373063295212491  0.9251424671053738  1.0000
  O   O1        1.0  0.6838874362628713  0.07260245809074213  0.7156678712060084  1.0000
  O   O2        1.0  0.816112485547329  0.42740029320193434  0.21566818649026231  1.0000
  O   O3        1.0  0.31611000725196453  0.9274005666321302  0.2843322973394393  1.0000
  O   O4        1.0  0.18388789486293433  0.5725993501931513  0.784332812320045  1.0000
  O   O5        1.0  0.02761351893818197  0.8104497829278757  0.8905439066636588  1.0000
  O   O6        1.0  0.4723842546206072  0.689550185560563  0.39054320364490275  1.0000
  O   O7        1.0  0.9723868614725858  0.1895498604670109  0.10945626188023988  1.0000
  O   O8        1.0  0.5276139044258983  0.3104505827432575  0.6094544741006444  1.0000
