data_image0
_chemical_formula_structural       Cu24H120C120I24N72
_chemical_formula_sum              "Cu24 H120 C120 I24 N72"
_cell_length_a       19.807253749494183
_cell_length_b       19.80714930243588
_cell_length_c       19.807284038519207
_cell_angle_alpha    109.47111868351743
_cell_angle_beta     109.47184748086849
_cell_angle_gamma    109.47112570615622

_space_group_name_H-M_alt    "P 1"
_space_group_IT_number       1

loop_
  _space_group_symop_operation_xyz
  'x, y, z'

loop_
  _atom_site_type_symbol
  _atom_site_label
  _atom_site_symmetry_multiplicity
  _atom_site_fract_x
  _atom_site_fract_y
  _atom_site_fract_z
  _atom_site_occupancy
  Cu  Cu1       1.0  0.04324936879779518  0.6711263411148422  0.7953395649875431  1.0000
  Cu  Cu2       1.0  0.12421972226374572  0.8288974947598503  0.8721431666635269  1.0000
  Cu  Cu3       1.0  0.4567532864039237  0.25208991398992  0.6278738444881853  1.0000
  Cu  Cu4       1.0  0.3757838458855929  0.24792183632654746  0.7046739277711396  1.0000
  Cu  Cu5       1.0  0.7953316112631013  0.043238766509922595  0.67111148248771  1.0000
  Cu  Cu6       1.0  0.8721268309171536  0.12421215565055384  0.8288821924451569  1.0000
  Cu  Cu7       1.0  0.6278722001778404  0.456754792206162  0.25208936977399077  1.0000
  Cu  Cu8       1.0  0.704672808059776  0.3757851363900997  0.24791121383091066  1.0000
  Cu  Cu9       1.0  0.6711155125753194  0.7953285974514798  0.04324177647947646  1.0000
  Cu  Cu10      1.0  0.8288857615472763  0.8721250898019334  0.12421532882262204  1.0000
  Cu  Cu11      1.0  0.25208999877654753  0.6278722335904946  0.45676256402022364  1.0000
  Cu  Cu12      1.0  0.24791051765808458  0.7046660072721096  0.37578430259918594  1.0000
  Cu  Cu13      1.0  0.29533532420680325  0.1711238480795885  0.5432534983574371  1.0000
  Cu  Cu14      1.0  0.3721361526322085  0.3288943137965532  0.6242227156667822  1.0000
  Cu  Cu15      1.0  0.1278693883260259  0.7520920867958266  0.9567587024643911  1.0000
  Cu  Cu16      1.0  0.20466993908174663  0.7479237350438908  0.8757895798454526  1.0000
  Cu  Cu17      1.0  0.17111464290199768  0.5432381215168718  0.2953337980259008  1.0000
  Cu  Cu18      1.0  0.328885595193036  0.6242102719939668  0.3721265099938763  1.0000
  Cu  Cu19      1.0  0.752089420392231  0.9567564393232146  0.12787188031572333  1.0000
  Cu  Cu20      1.0  0.7479095770910007  0.875784540317639  0.20467083507713113  1.0000
  Cu  Cu21      1.0  0.5432443884057676  0.29532928100115186  0.17111685072325872  1.0000
  Cu  Cu22      1.0  0.6242177484999658  0.3721258885618042  0.3288861906072  1.0000
  Cu  Cu23      1.0  0.9567581648046827  0.12787145586298007  0.7520854481863425  1.0000
  Cu  Cu24      1.0  0.8757822077925609  0.20466575775795798  0.7479082067102709  1.0000
  H   H1        1.0  0.9094214965905749  0.6969846075767095  0.7116206261853508  1.0000
  H   H2        1.0  0.7801768686567314  0.39896797089288333  0.5505190880501162  1.0000
  H   H3        1.0  0.5788764373668939  0.46576399836318666  0.44512828347946964  1.0000
  H   H4        1.0  0.6185798945862471  0.5299213876337346  0.5537696402096515  1.0000
  H   H5        1.0  0.674663432205854  0.5613137260003783  0.5049292592150253  1.0000
  H   H6        1.0  0.014636482410743596  0.8030178787148046  0.7124354109123201  1.0000
  H   H7        1.0  0.15155093060189992  0.10103217085544723  0.8812052797768644  1.0000
  H   H8        1.0  0.9793628398671145  0.03423405581079916  0.6131093354709236  1.0000
  H   H9        1.0  0.02384843715666551  0.9700786949069168  0.588658183533738  1.0000
  H   H10       1.0  0.9436116408670684  0.9386841928873507  0.6133455775072036  1.0000
  H   H11       1.0  0.5905814056660644  0.3021987742617682  0.7875615704171465  1.0000
  H   H12       1.0  0.7198219176930607  0.2703456522420993  0.6187909719128015  1.0000
  H   H13       1.0  0.9211234446144801  0.3662504291722827  0.8868870642355873  1.0000
  H   H14       1.0  0.8814198541172472  0.4351880280132433  0.9113414629210083  1.0000
  H   H15       1.0  0.8253351799895227  0.33026167510868026  0.886647171255305  1.0000
  H   H16       1.0  0.4853618142374501  0.1977973875396087  0.7883820636892054  1.0000
  H   H17       1.0  0.3484489284874569  0.22965597827666057  0.9494796513725062  1.0000
  H   H18       1.0  0.5206365825543529  0.1337481147377204  0.05487251786035342  1.0000
  H   H19       1.0  0.47615135434752887  0.06481011551879579  0.9462309506342094  1.0000
  H   H20       1.0  0.5563871530393385  0.16973550097215204  0.9950743128291748  1.0000
  H   H21       1.0  0.7116233775040115  0.9094221953665169  0.6969834312735941  1.0000
  H   H22       1.0  0.5505222079467698  0.7801748952393551  0.3989667662785195  1.0000
  H   H23       1.0  0.44512861928943426  0.5788773286000363  0.4657628105040316  1.0000
  H   H24       1.0  0.55377022176922  0.6185800425056414  0.5299212027839887  1.0000
  H   H25       1.0  0.5049284005298275  0.6746651908378708  0.5613154360231931  1.0000
  H   H26       1.0  0.7124345313885667  0.014635420966577137  0.8030165366619214  1.0000
  H   H27       1.0  0.8812072532073855  0.1515524729007466  0.10103123603539649  1.0000
  H   H28       1.0  0.6131123835502449  0.9793648107273468  0.034232953065121335  1.0000
  H   H29       1.0  0.5886581936621197  0.023849515939573948  0.9700762223911638  1.0000
  H   H30       1.0  0.6133480869351046  0.9436137397869402  0.9386829932410449  1.0000
  H   H31       1.0  0.7875638201652039  0.5905819003560497  0.30220152310142384  1.0000
  H   H32       1.0  0.6187937162295469  0.7198262845412772  0.27034876783816514  1.0000
  H   H33       1.0  0.8868884648298163  0.9211236332727354  0.36625095889454684  1.0000
  H   H34       1.0  0.9113422975183454  0.8814189119079288  0.435187876662198  1.0000
  H   H35       1.0  0.8866484813745997  0.8253346302107403  0.33026181738450333  1.0000
  H   H36       1.0  0.7883784817897209  0.48536220350261766  0.1977983347318715  1.0000
  H   H37       1.0  0.9494771537300791  0.3484464432876918  0.22965537758217644  1.0000
  H   H38       1.0  0.05486806432072187  0.520634881897699  0.13374823793908058  1.0000
  H   H39       1.0  0.9462271176344642  0.4761496329107401  0.06480991887148957  1.0000
  H   H40       1.0  0.9950692587713373  0.5563863918015953  0.1697347786618336  1.0000
  H   H41       1.0  0.6969841250030058  0.7116206328459002  0.9094225011329868  1.0000
  H   H42       1.0  0.3989688759583885  0.5505222407475472  0.7801763278589887  1.0000
  H   H43       1.0  0.4657654060454561  0.44513073778393425  0.5788783754997128  1.0000
  H   H44       1.0  0.5299243253751271  0.5537733418265064  0.6185830894009426  1.0000
  H   H45       1.0  0.5613175852011808  0.5049319492112616  0.6746696979277685  1.0000
  H   H46       1.0  0.8030164392455744  0.7124356314464891  0.014638845044182119  1.0000
  H   H47       1.0  0.10103082575881221  0.8812089175505023  0.15155253206474834  1.0000
  H   H48       1.0  0.03423458045358526  0.6131127365937986  0.9793648552808705  1.0000
  H   H49       1.0  0.970077155363974  0.5886568919607528  0.023846893054511136  1.0000
  H   H50       1.0  0.9386838464758751  0.6133490970913441  0.9436139542597246  1.0000
  H   H51       1.0  0.30220378065440906  0.7875656378575258  0.5905822247832261  1.0000
  H   H52       1.0  0.27034302457422393  0.6187916672356977  0.7198204604343842  1.0000
  H   H53       1.0  0.3662519492870119  0.8868874384041521  0.9211209960605018  1.0000
  H   H54       1.0  0.4351898202671551  0.9113412723471159  0.8814199169828568  1.0000
  H   H55       1.0  0.330263957055955  0.8866505978544766  0.8253347840494243  1.0000
  H   H56       1.0  0.19779997923873782  0.7883798690128926  0.48536083783681505  1.0000
  H   H57       1.0  0.22965428234781643  0.949477573793793  0.3484472091737771  1.0000
  H   H58       1.0  0.1337492949147857  0.05487000076998772  0.520636270389744  1.0000
  H   H59       1.0  0.0648100073374422  0.9462266308981171  0.476149042432695  1.0000
  H   H60       1.0  0.16973899800802883  0.9950700791116844  0.5563866544172881  1.0000
  H   H61       1.0  0.21162091227471083  0.19698395898455354  0.4094215070106344  1.0000
  H   H62       1.0  0.050519502911981706  0.8989690747347366  0.2801771836370006  1.0000
  H   H63       1.0  0.9451288165835835  0.9657646261682589  0.0788767330347257  1.0000
  H   H64       1.0  0.053770039461639406  0.029921112035559416  0.11858112655429659  1.0000
  H   H65       1.0  0.004928941085985582  0.06131588478624648  0.17466311449410196  1.0000
  H   H66       1.0  0.21243509911023742  0.30301753528050307  0.5146353509297085  1.0000
  H   H67       1.0  0.3812057663043689  0.6010317605874747  0.6515520714852272  1.0000
  H   H68       1.0  0.11310934139840605  0.5342349140126784  0.4793620554230671  1.0000
  H   H69       1.0  0.0886574956982925  0.4700785311713672  0.5238473089241679  1.0000
  H   H70       1.0  0.11334779151432885  0.4386869028571425  0.4436137515033351  1.0000
  H   H71       1.0  0.28756277794182245  0.802198761632134  0.09058297900819674  1.0000
  H   H72       1.0  0.11879446049365325  0.7703474487922719  0.2198246617442194  1.0000
  H   H73       1.0  0.3868894122148631  0.8662527424925982  0.4211246409919766  1.0000
  H   H74       1.0  0.41134304684079137  0.9351912531360114  0.3814217265919026  1.0000
  H   H75       1.0  0.38665125951182233  0.8302635126082195  0.32533633883689106  1.0000
  H   H76       1.0  0.28838098140681717  0.6977993081964016  0.9853612585109842  1.0000
  H   H77       1.0  0.4494761595147808  0.7296534691434574  0.8484454073460128  1.0000
  H   H78       1.0  0.5548728953438199  0.6337500687096947  0.020635988150715472  1.0000
  H   H79       1.0  0.44623193941771416  0.564812036752798  0.9761523867644184  1.0000
  H   H80       1.0  0.495074414506  0.6697378651888571  0.056386015316583514  1.0000
  H   H81       1.0  0.19698349685985053  0.4094217759536535  0.21162270197979183  1.0000
  H   H82       1.0  0.8989666844429393  0.28017525897755746  0.05052207374138368  1.0000
  H   H83       1.0  0.9657635271330277  0.07887809761676566  0.9451286743663516  1.0000
  H   H84       1.0  0.029923695416243783  0.1185806536798069  0.05377051419264228  1.0000
  H   H85       1.0  0.0613145816906666  0.17466539924102883  0.004928929145002319  1.0000
  H   H86       1.0  0.3030154717839508  0.5146361654635639  0.21243473916373287  1.0000
  H   H87       1.0  0.6010315791396578  0.6515538849530103  0.38120925619269025  1.0000
  H   H88       1.0  0.5342337151673746  0.47936514798031027  0.11311351772289412  1.0000
  H   H89       1.0  0.4700758849199289  0.5238497157880744  0.08865892403859738  1.0000
  H   H90       1.0  0.43868276746793106  0.4436143294500496  0.11334954463853113  1.0000
  H   H91       1.0  0.8021998922123217  0.09057948676517198  0.2875606967639186  1.0000
  H   H92       1.0  0.7703478580673034  0.21982513605284026  0.1187933939458434  1.0000
  H   H93       1.0  0.8662502872644353  0.4211225543018599  0.3868871384077225  1.0000
  H   H94       1.0  0.9351880138660033  0.3814184663193031  0.4113416146907838  1.0000
  H   H95       1.0  0.830261355759859  0.32533383459887955  0.3866477171445484  1.0000
  H   H96       1.0  0.6977979329685482  0.9853632191578116  0.28837951678966806  1.0000
  H   H97       1.0  0.7296576741470203  0.8484498989748629  0.4494774492645063  1.0000
  H   H98       1.0  0.6337485697378681  0.020635013085147584  0.5548683753686348  1.0000
  H   H99       1.0  0.5648095744100204  0.9761497130137828  0.4462268109041006  1.0000
  H   H100      1.0  0.6697354097240193  0.05638575420319118  0.4950698487493456  1.0000
  H   H101      1.0  0.40942235152423473  0.21162036516556526  0.19698339960373798  1.0000
  H   H102      1.0  0.2801764976648543  0.05052198991325715  0.8989691633892106  1.0000
  H   H103      1.0  0.07887853088001161  0.9451313069430543  0.9657655547895273  1.0000
  H   H104      1.0  0.11858242134288587  0.05377253180800778  0.029923071326955222  1.0000
  H   H105      1.0  0.17466934244511378  0.004932076998059606  0.06131691246658732  1.0000
  H   H106      1.0  0.514637654711592  0.21243321217636424  0.30301656300785146  1.0000
  H   H107      1.0  0.6515484978774708  0.3812069219650382  0.6010296923584094  1.0000
  H   H108      1.0  0.4793637530045913  0.11311132110603234  0.534233943605102  1.0000
  H   H109      1.0  0.5238484210040824  0.08865764555189774  0.4700784486921492  1.0000
  H   H110      1.0  0.4436127829149044  0.11334708616637808  0.43868473605320446  1.0000
  H   H111      1.0  0.09058160108623532  0.2875654847799821  0.8022035718299135  1.0000
  H   H112      1.0  0.21982105578735664  0.11879170758895442  0.770343471917208  1.0000
  H   H113      1.0  0.4211233323026063  0.3868881513708116  0.8662528510610129  1.0000
  H   H114      1.0  0.38142035841604377  0.41134195095149545  0.935189741588509  1.0000
  H   H115      1.0  0.3253352821911191  0.38665075427175555  0.8302649709994367  1.0000
  H   H116      1.0  0.9853633486528822  0.28838047453093213  0.6978003165876673  1.0000
  H   H117      1.0  0.8484473572708849  0.4494777709975324  0.7296537089939648  1.0000
  H   H118      1.0  0.020634735438115157  0.5548686367288981  0.6337474950293894  1.0000
  H   H119      1.0  0.9761492107992993  0.4462259555986635  0.5648079843315942  1.0000
  H   H120      1.0  0.0563873022663658  0.495069133392903  0.6697365429418551  1.0000
  C   C1        1.0  0.8794744569709253  0.6298029651407833  0.6757316103639752  1.0000
  C   C2        1.0  0.7613091060916444  0.5059710628534332  0.5791210672840492  1.0000
  C   C3        1.0  0.8074956178512308  0.46529101532745193  0.5886090541244614  1.0000
  C   C4        1.0  0.8908810672811069  0.5136482520546365  0.6457760415915956  1.0000
  C   C5        1.0  0.634953255055926  0.5082225367385078  0.5059660431544659  1.0000
  C   C6        1.0  0.045930367284242324  0.8701953085458953  0.7496747610890464  1.0000
  C   C7        1.0  0.07314943669856457  0.9940278392715528  0.7553375411519666  1.0000
  C   C8        1.0  0.12331840103378516  0.03470986076251144  0.8422062903184369  1.0000
  C   C9        1.0  0.13212753358337898  0.9863511505268294  0.8772337298943639  1.0000
  C   C10       1.0  0.9977422534232123  0.9917756706583422  0.6267291713732208  1.0000
  C   C11       1.0  0.6205231493629741  0.2962552897651778  0.7503260437531056  1.0000
  C   C12       1.0  0.7386914850361778  0.31781405046622535  0.7446621400749649  1.0000
  C   C13       1.0  0.6925042954788908  0.281115124040582  0.6577943231423974  1.0000
  C   C14       1.0  0.6091176103592062  0.254896094606714  0.6227668612734973  1.0000
  C   C15       1.0  0.8650454186869183  0.371010364230422  0.8732677661600831  1.0000
  C   C16       1.0  0.45406861961674844  0.20374357065468013  0.8242658025969192  1.0000
  C   C17       1.0  0.42684885905824616  0.18218771181179233  0.920877703809836  1.0000
  C   C18       1.0  0.37668204517527226  0.2188893412401925  0.9113906425652303  1.0000
  C   C19       1.0  0.3678711954633728  0.24510492369139322  0.8542220286646582  1.0000
  C   C20       1.0  0.5022568703474943  0.12898815141690506  0.9940343498517235  1.0000
  C   C21       1.0  0.6757345970277412  0.8794761746945737  0.6298025510976186  1.0000
  C   C22       1.0  0.5791232423129173  0.7613087390172025  0.5059708807894621  1.0000
  C   C23       1.0  0.5886114819135672  0.807495314506703  0.4652898799491609  1.0000
  C   C24       1.0  0.6457788916623244  0.8908809920020816  0.5136481882427548  1.0000
  C   C25       1.0  0.5059670234861502  0.6349555544106097  0.5082241126713711  1.0000
  C   C26       1.0  0.7496730974128525  0.04592874400039195  0.8701933169586056  1.0000
  C   C27       1.0  0.7553377512632051  0.07315076042377897  0.9940268227655622  1.0000
  C   C28       1.0  0.8422063788202294  0.12331984154376134  0.03471136590390984  1.0000
  C   C29       1.0  0.8772338543241317  0.13212702975265958  0.9863493464804804  1.0000
  C   C30       1.0  0.6267305023607792  0.9977436910926658  0.9917742889981084  1.0000
  C   C31       1.0  0.7503251600387129  0.6205227012594959  0.2962572656986211  1.0000
  C   C32       1.0  0.7446620185753688  0.7386916502512619  0.3178145610962347  1.0000
  C   C33       1.0  0.6577940920663963  0.6925035955920508  0.28111593961598663  1.0000
  C   C34       1.0  0.622766922387072  0.609118740486757  0.2548975503775779  1.0000
  C   C35       1.0  0.8732701358858677  0.8650458550066703  0.371010792183192  1.0000
  C   C36       1.0  0.8242643271478229  0.4540710710262347  0.20374366278991846  1.0000
  C   C37       1.0  0.9208761889558873  0.4268495607624985  0.18218655137620518  1.0000
  C   C38       1.0  0.911390690333796  0.37667932801643633  0.21888618114841313  1.0000
  C   C39       1.0  0.8542215527961687  0.36787287661347534  0.24510581166323694  1.0000
  C   C40       1.0  0.9940306838842617  0.5022564967860815  0.12898764184586783  1.0000
  C   C41       1.0  0.6298053981740993  0.6757353947371032  0.879479378296466  1.0000
  C   C42       1.0  0.5059727864624292  0.5791252199980618  0.7613101746864857  1.0000
  C   C43       1.0  0.465291814096112  0.5886124249249818  0.8074980568346674  1.0000
  C   C44       1.0  0.5136495553029546  0.6457789118217434  0.8908816747828752  1.0000
  C   C45       1.0  0.5082263466944495  0.505969646037549  0.6349578113179887  1.0000
  C   C46       1.0  0.8701943284954154  0.7496723280637951  0.04593037608309937  1.0000
  C   C47       1.0  0.9940276471916504  0.7553374326067159  0.07315179693217305  1.0000
  C   C48       1.0  0.03470975093974718  0.84220731761296  0.12331979830160827  1.0000
  C   C49       1.0  0.9863500975934726  0.8772327330963137  0.13212825543159576  1.0000
  C   C50       1.0  0.9917746189081595  0.626729860892162  0.9977429283913323  1.0000
  C   C51       1.0  0.2962580241637696  0.7503281625926945  0.62052269848526  1.0000
  C   C52       1.0  0.3178133057733702  0.7446629897877627  0.7386895752325343  1.0000
  C   C53       1.0  0.28111348849809287  0.6577943229000169  0.6925034691890913  1.0000
  C   C54       1.0  0.2548947571173556  0.6227673026879187  0.6091166416535215  1.0000
  C   C55       1.0  0.3710119166899943  0.8732690938321354  0.865043994676867  1.0000
  C   C56       1.0  0.20374365696429209  0.8242648244248656  0.4540683605923376  1.0000
  C   C57       1.0  0.1821861531778596  0.9208766438942038  0.426847690740054  1.0000
  C   C58       1.0  0.2188869871816907  0.9113876559598426  0.3766794533094995  1.0000
  C   C59       1.0  0.24510597025529526  0.8542232080082214  0.3678723087362668  1.0000
  C   C60       1.0  0.12898933709726634  0.9940309551578964  0.5022571179321034  1.0000
  C   C61       1.0  0.17573272362664477  0.12980463567980388  0.379477303213477  1.0000
  C   C62       1.0  0.0791210601144741  0.00597300105677331  0.2613100526816439  1.0000
  C   C63       1.0  0.08860878444472334  0.9652924342123158  0.307496440636548  1.0000
  C   C64       1.0  0.14577655750381524  0.013648416389315816  0.3908809421418056  1.0000
  C   C65       1.0  0.005966772659917307  0.00822420733788931  0.1349544157179068  1.0000
  C   C66       1.0  0.24967489939329107  0.37019679399629263  0.5459300623803571  1.0000
  C   C67       1.0  0.25533925827803455  0.4940286522398693  0.5731509778559952  1.0000
  C   C68       1.0  0.3422075810355594  0.5347078287261838  0.6233202212317224  1.0000
  C   C69       1.0  0.3772348427075158  0.4863510511077536  0.6321298847388662  1.0000
  C   C70       1.0  0.1267293377715077  0.4917771929147676  0.4977425323304629  1.0000
  C   C71       1.0  0.2503253562879594  0.7962542445730278  0.12052072923180654  1.0000
  C   C72       1.0  0.24466231408433714  0.8178125377067859  0.23869011009435323  1.0000
  C   C73       1.0  0.15779358015683442  0.7811125466341622  0.19250437978148935  1.0000
  C   C74       1.0  0.12276584712978421  0.754894082336996  0.1091149924667079  1.0000
  C   C75       1.0  0.37327078838382016  0.8710126405232756  0.3650465230567974  1.0000
  C   C76       1.0  0.32426634781294444  0.7037434462195193  0.9540693440742131  1.0000
  C   C77       1.0  0.4208770382207945  0.6821858913780048  0.9268480219874746  1.0000
  C   C78       1.0  0.41138861318907505  0.7188841932948831  0.8766788487172688  1.0000
  C   C79       1.0  0.35422080929245664  0.7451024451558864  0.8678699570739068  1.0000
  C   C80       1.0  0.49403529867465323  0.6289899155459793  0.002257681881509872  1.0000
  C   C81       1.0  0.1298038657080341  0.3794783898838717  0.17573569450026844  1.0000
  C   C82       1.0  0.0059710138584919  0.2613093293624047  0.07912376741178657  1.0000
  C   C83       1.0  0.965289764893029  0.30749677423067806  0.08861216209776057  1.0000
  C   C84       1.0  0.013648229249064116  0.3908814963965526  0.14577883744682646  1.0000
  C   C85       1.0  0.008224448644078576  0.13495634552104005  0.005968113234665404  1.0000
  C   C86       1.0  0.3701926244479452  0.545928132488875  0.24967164405178024  1.0000
  C   C87       1.0  0.49402688444006043  0.5731503506467346  0.25533685937031686  1.0000
  C   C88       1.0  0.5347118249994908  0.6233205619221706  0.34220709208789657  1.0000
  C   C89       1.0  0.4863487791995594  0.6321264485194716  0.3772336136069044  1.0000
  C   C90       1.0  0.4917744232916802  0.4977438326493981  0.12673104339788216  1.0000
  C   C91       1.0  0.7962573233839265  0.1205222753290656  0.2503248206779818  1.0000
  C   C92       1.0  0.8178138074459653  0.23869097756586655  0.24466157222644122  1.0000
  C   C93       1.0  0.7811149801258779  0.1925025221491836  0.15779338192177766  1.0000
  C   C94       1.0  0.7548966403464447  0.10911764888358284  0.1227662940553672  1.0000
  C   C95       1.0  0.8710100769482381  0.3650440240455453  0.3732683264408224  1.0000
  C   C96       1.0  0.7037429324498063  0.9540711834755556  0.3242662094539101  1.0000
  C   C97       1.0  0.6821881657175621  0.9268505940652785  0.42087783217966984  1.0000
  C   C98       1.0  0.7188889500990143  0.8766829533065065  0.411389180067147  1.0000
  C   C99       1.0  0.7451044338873274  0.8678726324127197  0.3542215564320373  1.0000
  C   C100      1.0  0.6289864368278302  0.0022551496820497935  0.49403028033651714  1.0000
  C   C101      1.0  0.3794777089208168  0.17573349450132977  0.12980375940008326  1.0000
  C   C102      1.0  0.2613091325473675  0.0791239941959745  0.00597143335397733  1.0000
  C   C103      1.0  0.30749632927173565  0.08861137699822315  0.9652912659573898  1.0000
  C   C104      1.0  0.3908815481398165  0.14577843983438046  0.013649612720129871  1.0000
  C   C105      1.0  0.13495679147013817  0.005969474587295998  0.008225294754716114  1.0000
  C   C106      1.0  0.5459298090393999  0.24967191305497485  0.3701959077241527  1.0000
  C   C107      1.0  0.5731493553218742  0.25533737487540986  0.49402798852818114  1.0000
  C   C108      1.0  0.6233156947449244  0.3422058066733981  0.5347071767568748  1.0000
  C   C109      1.0  0.6321280259764349  0.37723140372653313  0.4863503543085059  1.0000
  C   C110      1.0  0.4977422714719921  0.1267289943377676  0.4917753776400104  1.0000
  C   C111      1.0  0.12052315916908905  0.25032882156324393  0.7962578943374224  1.0000
  C   C112      1.0  0.23869078082984171  0.24466371412017912  0.8178136062462187  1.0000
  C   C113      1.0  0.19250387919333886  0.15779574642331076  0.7811137635628355  1.0000
  C   C114      1.0  0.10911773624157206  0.1227679313090917  0.7548944084164546  1.0000
  C   C115      1.0  0.36504558327543174  0.37326978177869546  0.8710128099261992  1.0000
  C   C116      1.0  0.9540697382169653  0.3242650952508085  0.703744984037371  1.0000
  C   C117      1.0  0.9268485388851532  0.4208759617389505  0.6821858607809973  1.0000
  C   C118      1.0  0.8766803389050679  0.41138767554310357  0.7188863547393539  1.0000
  C   C119      1.0  0.8678705934784076  0.3542215113123531  0.745103146744519  1.0000
  C   C120      1.0  0.0022561719282805704  0.4940300001260455  0.6289867987740863  1.0000
  I   I1        1.0  0.106777782332557  0.6006622189002541  0.8675373758299754  1.0000
  I   I2        1.0  0.26687171139351323  0.8993366883656152  0.006110008548837885  1.0000
  I   I3        1.0  0.39322184733366317  0.26075967386526594  0.4938860598072877  1.0000
  I   I4        1.0  0.23312948404706194  0.23923832732820222  0.6324647087220113  1.0000
  I   I5        1.0  0.8675354093701131  0.10677397374490026  0.6006610051809106  1.0000
  I   I6        1.0  0.006116863147099005  0.26687336366835257  0.8993392448271819  1.0000
  I   I7        1.0  0.4938829911206497  0.3932223485858302  0.2607580179801019  1.0000
  I   I8        1.0  0.6324648699709953  0.2331256466282453  0.23923946335612095  1.0000
  I   I9        1.0  0.600661080600439  0.8675344730360735  0.10677413453043998  1.0000
  I   I10       1.0  0.899337961123919  0.0061122602053628764  0.26687303906051346  1.0000
  I   I11       1.0  0.26075936949509776  0.4938842206529158  0.3932259102725837  1.0000
  I   I12       1.0  0.23923762193611245  0.6324621311483298  0.23312683529328376  1.0000
  I   I13       1.0  0.3675373706406973  0.10065930846300128  0.6067766904771474  1.0000
  I   I14       1.0  0.5061092727841866  0.39933352493819285  0.766868994113409  1.0000
  I   I15       1.0  0.9938901666643999  0.7607597364113728  0.8932243557289538  1.0000
  I   I16       1.0  0.13246311949242082  0.739236770654003  0.7331280909137234  1.0000
  I   I17       1.0  0.10066292171931211  0.6067746489775415  0.36753568800178016  1.0000
  I   I18       1.0  0.3993385072045399  0.766871956051027  0.5061132382630547  1.0000
  I   I19       1.0  0.760759024004741  0.8932233849921399  0.9938833403647818  1.0000
  I   I20       1.0  0.7392413430788594  0.7331280163392507  0.13246631825439442  1.0000
  I   I21       1.0  0.6067747912826462  0.367534110501829  0.10066108207430344  1.0000
  I   I22       1.0  0.7668750813572488  0.5061110010463069  0.3993382890427811  1.0000
  I   I23       1.0  0.8932255497868625  0.9938834764130889  0.7607584727450103  1.0000
  I   I24       1.0  0.7331265719608027  0.13246131244263643  0.7392353574497292  1.0000
  N   N1        1.0  0.7991795544628886  0.5893858413696477  0.6225377033300887  1.0000
  N   N2        1.0  0.9285837009886606  0.5970306461340371  0.6926219904588181  1.0000
  N   N3        1.0  0.6788766363004441  0.4641973295836409  0.5235219412865463  1.0000
  N   N4        1.0  0.03315553126667237  0.9106148146580894  0.7097986860466037  1.0000
  N   N5        1.0  0.09559438793704077  0.9029708315573756  0.8315577966581528  1.0000
  N   N6        1.0  0.05932398411376032  0.0358015359842838  0.7146797220053287  1.0000
  N   N7        1.0  0.7008198117908081  0.32335835429243087  0.7902024354138177  1.0000
  N   N8        1.0  0.5714138799001914  0.26403636889320115  0.6684433832960863  1.0000
  N   N9        1.0  0.8211227017684878  0.34464449355719057  0.7853195901858144  1.0000
  N   N10       1.0  0.4668430446654099  0.17664194604969907  0.8774587656597886  1.0000
  N   N11       1.0  0.4044052593615958  0.23596239579818246  0.80737584800233  1.0000
  N   N12       1.0  0.44067545828711  0.15535607486240352  0.97647745544387  1.0000
  N   N13       1.0  0.6225413221285407  0.7991810412333679  0.5893847548604185  1.0000
  N   N14       1.0  0.6926256294713865  0.9285844759903483  0.5970298657365304  1.0000
  N   N15       1.0  0.5235229810030902  0.6788768417278348  0.4641974234705943  1.0000
  N   N16       1.0  0.7097973747634113  0.033155558681677515  0.9106157043023017  1.0000
  N   N17       1.0  0.8315569225706909  0.0955933433034418  0.9029711769274871  1.0000
  N   N18       1.0  0.7146796494831378  0.05932387046428291  0.03579990053276575  1.0000
  N   N19       1.0  0.7902017465913147  0.7008175686395502  0.3233592082155994  1.0000
  N   N20       1.0  0.6684425050277056  0.5714126809009415  0.264038407130066  1.0000
  N   N21       1.0  0.7853200143556336  0.8211233020625316  0.34464435050423964  1.0000
  N   N22       1.0  0.8774601115231064  0.46684542247614047  0.1766419433639969  1.0000
  N   N23       1.0  0.8073772878804277  0.40440593411633335  0.23596201310310516  1.0000
  N   N24       1.0  0.9764754532974179  0.44067570373533016  0.15535702576600852  1.0000
  N   N25       1.0  0.5893869950959286  0.6225440795992582  0.7991849914599028  1.0000
  N   N26       1.0  0.5970315652399448  0.6926245171364656  0.9285880845304176  1.0000
  N   N27       1.0  0.46420166769962645  0.5235269352989536  0.6788821294964933  1.0000
  N   N28       1.0  0.9106134211428911  0.7097964338754182  0.03315672336514594  1.0000
  N   N29       1.0  0.9029709073329998  0.8315561250788762  0.09559463984323475  1.0000
  N   N30       1.0  0.035799820104365686  0.7146811219761703  0.059325453111512175  1.0000
  N   N31       1.0  0.3233598991063786  0.7902042833817903  0.7008188220746162  1.0000
  N   N32       1.0  0.26403813130902176  0.6684445517426242  0.5714147969977432  1.0000
  N   N33       1.0  0.34464421423618335  0.7853193181657262  0.8211209490874224  1.0000
  N   N34       1.0  0.17664238072803332  0.877456582907925  0.4668428621476294  1.0000
  N   N35       1.0  0.23596300247751167  0.8073746227574861  0.4044050158310882  1.0000
  N   N36       1.0  0.1553559988826265  0.976474624504462  0.44067382177964726  1.0000
  N   N37       1.0  0.1225392822979217  0.0893872034388536  0.29918259146800347  1.0000
  N   N38       1.0  0.19262413047342627  0.09703114396297965  0.4285862794704088  1.0000
  N   N39       1.0  0.023521357571795146  0.9641985115656126  0.17887731121696487  1.0000
  N   N40       1.0  0.20979847211387428  0.4106140051705508  0.5331544963078371  1.0000
  N   N41       1.0  0.33155718042160487  0.40296896626763606  0.595594058183451  1.0000
  N   N42       1.0  0.2146804512445539  0.5358016743126582  0.5593233796518218  1.0000
  N   N43       1.0  0.29020113286034627  0.8233572008545804  0.20081911055298454  1.0000
  N   N44       1.0  0.16844165543281517  0.7640359162735706  0.07141300135094032  1.0000
  N   N45       1.0  0.2853214691291014  0.844645857667352  0.3211222670635222  1.0000
  N   N46       1.0  0.37746073559053883  0.6766410067546219  0.9668436782774776  1.0000
  N   N47       1.0  0.3073764436226438  0.7359619401355743  0.904405170877446  1.0000
  N   N48       1.0  0.47647833636374043  0.6553558697682715  0.9406750250005657  1.0000
  N   N49       1.0  0.08938491169942613  0.29918394377491353  0.12254305406256799  1.0000
  N   N50       1.0  0.09702951342631395  0.42858686064047197  0.19262607207133442  1.0000
  N   N51       1.0  0.9641978644402085  0.17887811989891125  0.02352410847504432  1.0000
  N   N52       1.0  0.4106151805860421  0.533155190155668  0.20979654071518894  1.0000
  N   N53       1.0  0.40297118940830506  0.5955934295894211  0.33155646507365333  1.0000
  N   N54       1.0  0.5357996743012093  0.5593247937469101  0.21468098208777064  1.0000
  N   N55       1.0  0.8233579609774393  0.20081606395845605  0.2902005976455372  1.0000
  N   N56       1.0  0.7640377894951058  0.0714116769088165  0.16844102756112297  1.0000
  N   N57       1.0  0.8446445804929894  0.32112207038147755  0.28531896580295807  1.0000
  N   N58       1.0  0.6766419794924374  0.9668455967069604  0.3774586199159911  1.0000
  N   N59       1.0  0.7359625985827734  0.9044074122833266  0.3073756046415854  1.0000
  N   N60       1.0  0.6553572978091751  0.9406754345304051  0.4764756536534662  1.0000
  N   N61       1.0  0.29918303610897823  0.12254193115358457  0.08938537846258755  1.0000
  N   N62       1.0  0.4285872763825438  0.19262379864671425  0.0970304495485124  1.0000
  N   N63       1.0  0.178878006749457  0.02352442982662936  0.9641987909275468  1.0000
  N   N64       1.0  0.5331561288935874  0.2097964205194955  0.4106139431185055  1.0000
  N   N65       1.0  0.5955939372020821  0.331555202509925  0.4029688027752272  1.0000
  N   N66       1.0  0.559323771261063  0.21467896589406618  0.5358006920268109  1.0000
  N   N67       1.0  0.2008196919366726  0.29020580737925183  0.8233606927417938  1.0000
  N   N68       1.0  0.07141509487691886  0.1684450961516007  0.7640380619905757  1.0000
  N   N69       1.0  0.32112188720157064  0.2853204931093885  0.844645045535401  1.0000
  N   N70       1.0  0.9668437219742427  0.3774560922067494  0.6766424699522489  1.0000
  N   N71       1.0  0.904406236039321  0.3073748828687498  0.7359634462454848  1.0000
  N   N72       1.0  0.9406738791830519  0.47647369076082674  0.6553542416685547  1.0000
