data_image0
_chemical_formula_structural       Cd2H16C24S2N4O8
_chemical_formula_sum              "Cd2 H16 C24 S2 N4 O8"
_cell_length_a       6.947565443109787
_cell_length_b       6.9475768551110395
_cell_length_c       14.371181822002738
_cell_angle_alpha    89.99992979487135
_cell_angle_beta     89.99998552487179
_cell_angle_gamma    90.0006439987866

_space_group_name_H-M_alt    "P 1"
_space_group_IT_number       1

loop_
  _space_group_symop_operation_xyz
  'x, y, z'

loop_
  _atom_site_type_symbol
  _atom_site_label
  _atom_site_symmetry_multiplicity
  _atom_site_fract_x
  _atom_site_fract_y
  _atom_site_fract_z
  _atom_site_occupancy
  Cd  Cd1       1.0  0.4999980227197085  0.9999974630562677  0.0338048213452424  1.0000
  Cd  Cd2       1.0  0.999998906264004  0.5000003188869256  0.9661952024532426  1.0000
  H   H1        1.0  0.2901679026432689  0.7901689543825368  0.20592992050437428  1.0000
  H   H2        1.0  0.709828194543128  0.20982940612346815  0.2059300677221856  1.0000
  H   H3        1.0  0.7901712305335522  0.7098279083385748  0.7940687383688213  1.0000
  H   H4        1.0  0.2098288908016031  0.29017185825393454  0.794068901157928  1.0000
  H   H5        1.0  0.27974976233128496  0.7797477765882023  0.3814701151580593  1.0000
  H   H6        1.0  0.7202505651953784  0.22025158375993928  0.3814688631253915  1.0000
  H   H7        1.0  0.7797504163743838  0.7202504083612739  0.6185306325539769  1.0000
  H   H8        1.0  0.2202512320403756  0.27974979776873  0.6185308002630664  1.0000
  H   H9        1.0  0.2795582495817897  0.7795559525237578  0.692455673364563  1.0000
  H   H10       1.0  0.7204448012576776  0.22044694721516578  0.6924558128652336  1.0000
  H   H11       1.0  0.7795605005390343  0.7204407909321162  0.3075443785352192  1.0000
  H   H12       1.0  0.22044130328517034  0.2795587545239258  0.3075452421714289  1.0000
  H   H13       1.0  0.28882913179241126  0.7888280850278094  0.8659229624463335  1.0000
  H   H14       1.0  0.7111695142961166  0.21117438034254124  0.8659231086881931  1.0000
  H   H15       1.0  0.7888313652266205  0.7111687626361274  0.1340777841085909  1.0000
  H   H16       1.0  0.2111690859358646  0.2888312171552556  0.1340779475306988  1.0000
  C   C1        1.0  0.3820451967363566  0.8820460550594899  0.2483954273494433  1.0000
  C   C2        1.0  0.6179523185889478  0.11795363847686959  0.24839494552540492  1.0000
  C   C3        1.0  0.8820489525704713  0.6179518404093614  0.7516018281371545  1.0000
  C   C4        1.0  0.11795262934097647  0.38204803252408226  0.7516019475557129  1.0000
  C   C5        1.0  0.37697142430261016  0.8769721940241408  0.3451279051459153  1.0000
  C   C6        1.0  0.6230260426719951  0.12302581795414368  0.3451267237966534  1.0000
  C   C7        1.0  0.8769767248570587  0.6230256444183478  0.6548721343353705  1.0000
  C   C8        1.0  0.12302634475697968  0.3769759100751671  0.65487225614865  1.0000
  C   C9        1.0  0.49999807005199415  0.9999979967106821  0.3956577553911345  1.0000
  C   C10       1.0  1.2194774114999996e-06  0.5000009090921366  0.6043412402381136  1.0000
  C   C11       1.0  0.4999993470350432  0.9999983260094111  0.49421163283420094  1.0000
  C   C12       1.0  1.2441031315999997e-06  0.5000010324725537  0.5057905422132407  1.0000
  C   C13       1.0  0.5000009029262173  6.457186003999996e-07  0.5791395339007793  1.0000
  C   C14       1.0  1.2653254301999998e-06  0.5000011388010392  0.4208601575644266  1.0000
  C   C15       1.0  0.5000023176476205  1.9616264665999992e-06  0.6777465947218744  1.0000
  C   C16       1.0  1.2899574954999995e-06  0.4999998229030068  0.3222517050692417  1.0000
  C   C17       1.0  0.3771598848723841  0.8771588310005001  0.7282759348085932  1.0000
  C   C18       1.0  0.6228431480656268  0.1228439790480707  0.7282761452674508  1.0000
  C   C19       1.0  0.877158178055957  0.6228418882251104  0.2717220171372645  1.0000
  C   C20       1.0  0.12284220431779859  0.3771577469192877  0.2717221388642557  1.0000
  C   C21       1.0  0.3817830889444381  0.8817833700173735  0.824882462583318  1.0000
  C   C22       1.0  0.618218456368531  0.1182206374801567  0.8248833722408265  1.0000
  C   C23       1.0  0.8817828177742087  0.6182159618281632  0.1751189679584968  1.0000
  C   C24       1.0  0.1182176128697279  0.38178247585047836  0.17511839166498794  1.0000
  S   S1        1.0  0.4999981000468948  0.4999987183925043  0.9999991224108838  1.0000
  S   S2        1.0  0.9999992165589903  0.999999862823806  1.3279354150000003e-06  1.0000
  N   N1        1.0  0.4999994203039222  1.3241318439999923e-07  0.2010262809129131  1.0000
  N   N2        1.0  0.9999997314811394  0.49999922606069447  0.7989758941346139  1.0000
  N   N3        1.0  0.49999939031066276  1.7179594635999987e-06  0.8723638526931126  1.0000
  N   N4        1.0  0.999999899226303  0.499998627191502  0.1276372304466946  1.0000
  O   O1        1.0  0.48790992458443583  0.6720412903535831  0.0617330341310236  1.0000
  O   O2        1.0  0.5120876839949914  0.32795311316598214  0.0617303523881105  1.0000
  O   O3        1.0  0.9879101900256657  0.8279549163577826  0.9382683828829315  1.0000
  O   O4        1.0  0.0120869805382  0.1720444891564483  0.9382693375376192  1.0000
  O   O5        1.0  0.17204277868203377  0.9879122353085633  0.0617329595764176  1.0000
  O   O6        1.0  0.8279548299128764  0.0120850469090286  0.0617332102898374  1.0000
  O   O7        1.0  0.32795335853189295  0.48791034849908493  0.9382671352077026  1.0000
  O   O8        1.0  0.6720438120490186  0.5120919357210099  0.9382671060270055  1.0000
