data_image0
_chemical_formula_structural       Cu4H24C40S4N16
_chemical_formula_sum              "Cu4 H24 C40 S4 N16"
_cell_length_a       3.734416539486087
_cell_length_b       16.13520994919835
_cell_length_c       17.128447915636954
_cell_angle_alpha    113.15293782127281
_cell_angle_beta     94.2048017694379
_cell_angle_gamma    95.80244630566047

_space_group_name_H-M_alt    "P 1"
_space_group_IT_number       1

loop_
  _space_group_symop_operation_xyz
  'x, y, z'

loop_
  _atom_site_type_symbol
  _atom_site_label
  _atom_site_symmetry_multiplicity
  _atom_site_fract_x
  _atom_site_fract_y
  _atom_site_fract_z
  _atom_site_occupancy
  Cu  Cu1       1.0  0.5096144412127616  0.5282317731300239  0.18737228328115663  1.0000
  Cu  Cu2       1.0  0.49035515440357363  0.4717668026202801  0.8126165731208417  1.0000
  Cu  Cu3       1.0  0.8406150390673588  0.1648215325814562  0.061616884416018515  1.0000
  Cu  Cu4       1.0  0.15936873423787293  0.8351717140688492  0.9383877179320875  1.0000
  H   H1        1.0  0.7319099451471301  0.6307945046477671  0.046881394451006066  1.0000
  H   H2        1.0  0.2681048246125286  0.36921302357359304  0.9531142913095039  1.0000
  H   H3        1.0  0.7236570871951996  0.7842621757705003  0.04195180304036949  1.0000
  H   H4        1.0  0.2764148663138499  0.2157509627606231  0.9580566507247567  1.0000
  H   H5        1.0  0.5500404024322308  0.9102916824947798  0.1672984613792893  1.0000
  H   H6        1.0  0.45004579341210876  0.08971743046269151  0.832713958078017  1.0000
  H   H7        1.0  0.41001764290133036  0.8799333303048373  0.2971218546818408  1.0000
  H   H8        1.0  0.5900397407540441  0.12007230909003401  0.7028865590299632  1.0000
  H   H9        1.0  0.9575628995017099  0.9072873241049849  0.4656646161544772  1.0000
  H   H10       1.0  0.0423781492549935  0.0927071526734125  0.5343316850900665  1.0000
  H   H11       1.0  0.8193233898265149  0.0216155926197459  0.605753387958849  1.0000
  H   H12       1.0  0.18064643978731004  0.9783823549471578  0.3942463337195009  1.0000
  H   H13       1.0  0.9197675049036607  0.9878991400000176  0.7372624978572659  1.0000
  H   H14       1.0  0.08026245134943369  0.0121009695412582  0.2627370846167238  1.0000
  H   H15       1.0  0.15116520794726565  0.8439125181325127  0.7221564580793044  1.0000
  H   H16       1.0  0.8488542008247179  0.15608823522521936  0.27784029897415513  1.0000
  H   H17       1.0  0.1639114771825234  0.5282063516213144  0.46944736866820597  1.0000
  H   H18       1.0  0.8360785969935948  0.47179978202690626  0.5305515553398338  1.0000
  H   H19       1.0  0.17477387205749303  0.36102041716253547  0.44164626834675863  1.0000
  H   H20       1.0  0.8252134034334447  0.638985051986225  0.5583570438820402  1.0000
  H   H21       1.0  0.4032352157256582  0.2626930884785637  0.3069679572563331  1.0000
  H   H22       1.0  0.5967641486923085  0.7373096944332148  0.6930362814591433  1.0000
  H   H23       1.0  0.5730111592089955  0.32851377558551337  0.20257101144242995  1.0000
  H   H24       1.0  0.4270003276878854  0.6714815495560276  0.7974300616192381  1.0000
  C   C1        1.0  0.6603090098203948  0.6880357317393758  0.10083535376895715  1.0000
  C   C2        1.0  0.3397271535453754  0.31197118419203224  0.8991650678550301  1.0000
  C   C3        1.0  0.6557845454920751  0.773425163534192  0.09825085831803909  1.0000
  C   C4        1.0  0.3442689866498796  0.22658384374742016  0.9017534885636493  1.0000
  C   C5        1.0  0.562062747753835  0.8438653404895861  0.16897720506445077  1.0000
  C   C6        1.0  0.43799795255354473  0.1561416581663337  0.831030002630861  1.0000
  C   C7        1.0  0.4806715373677052  0.8271475002524725  0.23995201514524214  1.0000
  C   C8        1.0  0.5193668420700277  0.17285808189045332  0.7600526163076324  1.0000
  C   C9        1.0  0.48795401914203046  0.7393935280990362  0.236795816101477  1.0000
  C   C10       1.0  0.5120638795158783  0.26060927045331544  0.7632034251975314  1.0000
  C   C11       1.0  0.3986867473069184  0.715349863589083  0.3085584616927834  1.0000
  C   C12       1.0  0.601308500505617  0.2846508403332352  0.6914385330296683  1.0000
  C   C13       1.0  0.21755635821401148  0.7490913096664402  0.4406549150075279  1.0000
  C   C14       1.0  0.7824324922747293  0.25090734552853894  0.5593424061469392  1.0000
  C   C15       1.0  0.12626514468733777  0.8170894269503111  0.5219020738806891  1.0000
  C   C16       1.0  0.8737122937204589  0.18290784880635164  0.4780957520976728  1.0000
  C   C17       1.0  0.00038131474697424223  0.8969740862301238  0.5244703914939209  1.0000
  C   C18       1.0  0.9995704548073404  0.1030204109784023  0.4755254789467998  1.0000
  C   C19       1.0  0.923146972384309  0.9596822352273691  0.6022972836314651  1.0000
  C   C20       1.0  0.0768246973193243  0.0403143452619545  0.3976996241354557  1.0000
  C   C21       1.0  0.9766754184750398  0.9412097098634505  0.6748802094964503  1.0000
  C   C22       1.0  0.0233360201953801  0.058791034413381696  0.3251181876111886  1.0000
  C   C23       1.0  0.10358653326498066  0.859708337386536  0.666044993621533  1.0000
  C   C24       1.0  0.8964248427417515  0.14029240134211565  0.3339522328627211  1.0000
  C   C25       1.0  0.3396702887505399  0.6066710200222832  0.3631942550563708  1.0000
  C   C26       1.0  0.6603071976463825  0.3933269088846033  0.6367979734508751  1.0000
  C   C27       1.0  0.351699319999355  0.5113633007396032  0.3503231735894374  1.0000
  C   C28       1.0  0.648277600441631  0.4886332802554705  0.6496714701846501  1.0000
  C   C29       1.0  0.24862875138937574  0.47996978966917686  0.4115583764802295  1.0000
  C   C30       1.0  0.7513569535438337  0.5200329448186807  0.5884415719185512  1.0000
  C   C31       1.0  0.26024284807114384  0.3890271099610559  0.3963923924409302  1.0000
  C   C32       1.0  0.7397537343189169  0.6109756588273993  0.6036100517124937  1.0000
  C   C33       1.0  0.38151770425785264  0.33364615615172966  0.3207077215583567  1.0000
  C   C34       1.0  0.6184729047796865  0.6663552503487014  0.6792964752962832  1.0000
  C   C35       1.0  0.47793108863077544  0.37016904495842345  0.2623115073150899  1.0000
  C   C36       1.0  0.5220629019424977  0.6298289520438943  0.737687976694275  1.0000
  C   C37       1.0  0.9185965950601018  0.3660807123183928  0.09049363663514498  1.0000
  C   C38       1.0  0.08133863922334689  0.6339076417350925  0.9095026664169057  1.0000
  C   C39       1.0  0.7137975836289244  0.9773594812260885  0.9159826368197629  1.0000
  C   C40       1.0  0.2862149225443034  0.02263658306250701  0.0840309834332658  1.0000
  S   S1        1.0  0.9523293862153678  0.47383235056067724  0.10397228710033357  1.0000
  S   S2        1.0  0.04763346988423222  0.5261532993544265  0.8960140532780231  1.0000
  S   S3        1.0  0.649131986314629  0.8656004989522402  0.8653907887835787  1.0000
  S   S4        1.0  0.350847068657309  0.1343988666373832  0.1346177544309981  1.0000
  N   N1        1.0  0.5755117237325679  0.6708138429255756  0.1680103098601436  1.0000
  N   N2        1.0  0.424497624193279  0.32918824623610743  0.8319862186653781  1.0000
  N   N3        1.0  0.4438287247583331  0.6299848757191454  0.2996804078612527  1.0000
  N   N4        1.0  0.5561537763957389  0.37001238389871827  0.700311642254114  1.0000
  N   N5        1.0  0.4624238179139439  0.4573659401628304  0.2760084564669398  1.0000
  N   N6        1.0  0.5375662753768182  0.5426299972686693  0.723987880731258  1.0000
  N   N7        1.0  0.23033888525832685  0.6638017572575167  0.4348276712238431  1.0000
  N   N8        1.0  0.7696491486196992  0.33619552783291357  0.5651673827039261  1.0000
  N   N9        1.0  0.17516741188051552  0.7983157847423712  0.5916605645784828  1.0000
  N   N10       1.0  0.8248233726935724  0.20168151169730214  0.408335698599636  1.0000
  N   N11       1.0  0.2845012693827655  0.7766388566015082  0.3774733024047381  1.0000
  N   N12       1.0  0.7154948263723284  0.22336322019943827  0.6225265448561075  1.0000
  N   N13       1.0  0.8979732973677058  0.2885671743083692  0.07921879764017353  1.0000
  N   N14       1.0  0.10199450662259593  0.7114212770987013  0.920783822052414  1.0000
  N   N15       1.0  0.7621742434130637  0.05732631674434431  0.9540448739808269  1.0000
  N   N16       1.0  0.2378378196742475  0.9426792573216646  0.04596990681284307  1.0000
