data_image0
_chemical_formula_structural       Cd2H24C28N6O12
_chemical_formula_sum              "Cd2 H24 C28 N6 O12"
_cell_length_a       7.734377694638595
_cell_length_b       9.362929205877002
_cell_length_c       11.260733633840092
_cell_angle_alpha    102.28186787064799
_cell_angle_beta     106.07366946140229
_cell_angle_gamma    106.33419709773747

_space_group_name_H-M_alt    "P 1"
_space_group_IT_number       1

loop_
  _space_group_symop_operation_xyz
  'x, y, z'

loop_
  _atom_site_type_symbol
  _atom_site_label
  _atom_site_symmetry_multiplicity
  _atom_site_fract_x
  _atom_site_fract_y
  _atom_site_fract_z
  _atom_site_occupancy
  Cd  Cd1       1.0  0.054691869289790446  0.8447081220338859  0.0784983376104194  1.0000
  Cd  Cd2       1.0  0.9453067229750971  0.15529186646455165  0.9215013985629171  1.0000
  H   H1        1.0  0.8295421176607434  0.5391865530887968  0.48342625008073975  1.0000
  H   H2        1.0  0.1704612874592257  0.4608181005572263  0.5165778981189391  1.0000
  H   H3        1.0  0.3589810793320182  0.20975308433212797  0.2505173829397194  1.0000
  H   H4        1.0  0.641014023199979  0.7902481055484643  0.7494819021586635  1.0000
  H   H5        1.0  0.7331966088328842  0.5234403964699722  0.0829036741023472  1.0000
  H   H6        1.0  0.26680065328896774  0.4765537169492049  0.9170956504321737  1.0000
  H   H7        1.0  0.5553720268310656  0.3732294559503443  0.48405684498330714  1.0000
  H   H8        1.0  0.4446254882717184  0.6267740739848762  0.5159415404797372  1.0000
  H   H9        1.0  0.07261057088045668  0.7789133872179049  0.6573458699144581  1.0000
  H   H10       1.0  0.9273890909819826  0.22108894876698315  0.342653600070129  1.0000
  H   H11       1.0  0.3198238971484386  0.04543132740401029  0.7213203223559006  1.0000
  H   H12       1.0  0.6801752325480378  0.9545698380437241  0.2786779497308344  1.0000
  H   H13       1.0  0.5092997218567135  0.26008779543366234  0.6600711881239576  1.0000
  H   H14       1.0  0.49070047392689287  0.7399157132257557  0.33992859243033285  1.0000
  H   H15       1.0  0.6470001441246396  0.39612088085062414  0.24260987146541171  1.0000
  H   H16       1.0  0.3530040793671674  0.6038767059031827  0.7573940622888529  1.0000
  H   H17       1.0  0.3490673839429732  0.8443127866366567  0.9003058119771412  1.0000
  H   H18       1.0  0.6509309442660082  0.15568366999420385  0.09969502102492804  1.0000
  H   H19       1.0  0.5244494683292301  0.9847865779490446  0.867398708311484  1.0000
  H   H20       1.0  0.4755475204169386  0.015209890388405298  0.13260098348089136  1.0000
  H   H21       1.0  0.24274259771022594  0.6260788759323999  0.11589777964599787  1.0000
  H   H22       1.0  0.7572554588782763  0.37391993775411686  0.8841025332857839  1.0000
  H   H23       1.0  0.404754233667049  0.7438421114941248  0.0840952526528653  1.0000
  H   H24       1.0  0.595246505357494  0.25615668305398026  0.9159055680420067  1.0000
  C   C1        1.0  0.8619295771532973  0.588340391184701  0.40907973211427157  1.0000
  C   C2        1.0  0.1380708867403584  0.41166075614430747  0.5909223431666106  1.0000
  C   C3        1.0  0.34535291346588076  0.16399238983947834  0.3300615359251466  1.0000
  C   C4        1.0  0.6546456805542176  0.8360076007963426  0.6699373129200339  1.0000
  C   C5        1.0  0.8112733067629422  0.5804418421826227  0.1870609077609373  1.0000
  C   C6        1.0  0.1887250214460394  0.4195546144482378  0.8129399252411388  1.0000
  C   C7        1.0  0.4530879939991053  0.2553464334449131  0.4604505630685978  1.0000
  C   C8        1.0  0.5469097927241435  0.7446547394346437  0.5395483424647409  1.0000
  C   C9        1.0  0.008296475699317735  0.7375802494828391  0.4495647960789526  1.0000
  C   C10       1.0  0.9917013110239306  0.26242092339672496  0.5504341094543789  1.0000
  C   C11       1.0  0.04812217459966214  0.7995239099015093  0.3510509218348474  1.0000
  C   C12       1.0  0.9518772249620752  0.20047489635318524  0.6489487576503308  1.0000
  C   C13       1.0  0.19045373581100492  0.9553219597994912  0.3889072789957311  1.0000
  C   C14       1.0  0.8095488836183619  0.044678004266088985  0.6110914441659504  1.0000
  C   C15       1.0  0.11000157485051432  0.8276346450479863  0.584043647162396  1.0000
  C   C16       1.0  0.8899967440386902  0.17236769836873117  0.4159564562687947  1.0000
  C   C17       1.0  0.24571155203462058  0.9739705179905083  0.6193981090155204  1.0000
  C   C18       1.0  0.7542902653635223  0.026030634730958003  0.38059800884986567  1.0000
  C   C19       1.0  0.28956675434034906  0.0410499603998389  0.5236033936622064  1.0000
  C   C20       1.0  0.7104353276574286  0.9589488267164437  0.476396793586069  1.0000
  C   C21       1.0  0.42644436136006186  0.1933825213214746  0.5577173009604053  1.0000
  C   C22       1.0  0.5735574560380883  0.8066186313999921  0.442278816904981  1.0000
  C   C23       1.0  0.7623303530884298  0.5103627138212656  0.27770422239130704  1.0000
  C   C24       1.0  0.23767199121004975  0.48963960302521037  0.7222957553563703  1.0000
  C   C25       1.0  0.6413806625856322  0.8638186855205984  0.9927510982564058  1.0000
  C   C26       1.0  0.3586216764472141  0.13618362491373395  0.007251541475717693  1.0000
  C   C27       1.0  0.4944198026209533  0.9350490915510787  0.9424777863431899  1.0000
  C   C28       1.0  0.5055806612727025  0.06495205577792258  0.057524288937692264  1.0000
  N   N1        1.0  0.22067968509848868  0.018168019699743396  0.2951012846954981  1.0000
  N   N2        1.0  0.7793218682437484  0.9818296011541531  0.7048959299986349  1.0000
  N   N3        1.0  0.9510941931851633  0.7194061992462933  0.22275457476715832  1.0000
  N   N4        1.0  0.048907081515764596  0.28059377011373227  0.7772456691692682  1.0000
  N   N5        1.0  0.8892530596619392  0.6129979176063356  0.8116436942176505  1.0000
  N   N6        1.0  0.11074687206575362  0.3870020591855122  0.1883571831653796  1.0000
  O   O1        1.0  0.29700891609081026  0.7370932004087576  0.11918180114790995  1.0000
  O   O2        1.0  0.702990481715716  0.2629056037085533  0.880818765665417  1.0000
  O   O3        1.0  0.015256402692074386  0.7483124821513627  0.8393825614072981  1.0000
  O   O4        1.0  0.9847421895728132  0.2516875063470749  0.1606171747660313  1.0000
  O   O5        1.0  0.8494703846387281  0.5729621334258892  0.9064156398885999  1.0000
  O   O6        1.0  0.1505290131677981  0.4270366706914287  0.09358492692472709  1.0000
  O   O7        1.0  0.8058635305646786  0.5223786391029462  0.6975978343859452  1.0000
  O   O8        1.0  0.1941358672418474  0.4776201650143646  0.3024027324273817  1.0000
  O   O9        1.0  0.8066148684818161  0.9179855501059749  0.9807366810915211  1.0000
  O   O10       1.0  0.19338506149067308  0.08201442454848969  0.01926508361965769  1.0000
  O   O11       1.0  0.5995380160923816  0.7612344235199513  0.04677489698367048  1.0000
  O   O12       1.0  0.4004632568533353  0.2387655437026908  0.9532262342809048  1.0000
