data_image0
_chemical_formula_structural       Zn4H52C68N4Cl4O16
_chemical_formula_sum              "Zn4 H52 C68 N4 Cl4 O16"
_cell_length_a       11.56727275043282
_cell_length_b       11.56726612934223
_cell_length_c       14.572783530245777
_cell_angle_alpha    68.8749770572853
_cell_angle_beta     68.87507818072446
_cell_angle_gamma    68.069403379122

_space_group_name_H-M_alt    "P 1"
_space_group_IT_number       1

loop_
  _space_group_symop_operation_xyz
  'x, y, z'

loop_
  _atom_site_type_symbol
  _atom_site_label
  _atom_site_symmetry_multiplicity
  _atom_site_fract_x
  _atom_site_fract_y
  _atom_site_fract_z
  _atom_site_occupancy
  Zn  Zn1       1.0  0.26605832512954913  0.6297704306491385  0.8201336029344685  1.0000
  Zn  Zn2       1.0  0.6297689779199799  0.2660584544808202  0.3201341149379502  1.0000
  Zn  Zn3       1.0  0.9953249800008307  0.6335303938969404  0.9001417446088738  1.0000
  Zn  Zn4       1.0  0.633530450908289  0.9953253677863856  0.4001413367020632  1.0000
  H   H1        1.0  0.5215443129436891  0.4338158235276027  0.8204256890916354  1.0000
  H   H2        1.0  0.43381576832662444  0.521545429355193  0.3204238895185155  1.0000
  H   H3        1.0  0.7534422490849408  0.42989819951136354  0.7511332248344189  1.0000
  H   H4        1.0  0.42989711575086886  0.7534438434887394  0.25113213379380983  1.0000
  H   H5        1.0  0.6292975032432296  0.8463638237666233  0.6524763612246146  1.0000
  H   H6        1.0  0.8463636442549356  0.629298340371918  0.15247690988097415  1.0000
  H   H7        1.0  0.4022534451759654  0.8335209379182515  0.7276652061134  1.0000
  H   H8        1.0  0.8335203852049415  0.40225361886542293  0.22766480088925087  1.0000
  H   H9        1.0  0.8395469182950637  0.442703645481771  0.9981314247751243  1.0000
  H   H10       1.0  0.4427047164264197  0.8395475240628089  0.49813270367921786  1.0000
  H   H11       1.0  0.6076468628548497  0.4479686580092945  0.0559168055276232  1.0000
  H   H12       1.0  0.4479687541931908  0.6076486142354443  0.555915574343338  1.0000
  H   H13       1.0  0.7546600269193248  0.8385499051873287  0.8758922832486603  1.0000
  H   H14       1.0  0.838549890876031  0.7546596564829218  0.3758916809504239  1.0000
  H   H15       1.0  0.5178053113684625  0.8612869624449504  0.927981015511122  1.0000
  H   H16       1.0  0.8612878610887901  0.51780398261824  0.4279812608696646  1.0000
  H   H17       1.0  0.3766264039775464  0.6031872600540427  0.006991980783070111  1.0000
  H   H18       1.0  0.6031862024986836  0.37662610829768556  0.5069925707370045  1.0000
  H   H19       1.0  0.34159109665231563  0.7654064414467217  0.009234133329727015  1.0000
  H   H20       1.0  0.7654057689258236  0.3415912190292191  0.5092346067955305  1.0000
  H   H21       1.0  0.3711150756698913  0.6357545687239394  0.11814669477841729  1.0000
  H   H22       1.0  0.6357541349155724  0.37111532083903154  0.6181462877529497  1.0000
  H   H23       1.0  0.8589770421894727  0.7249858198310905  0.5837668077916475  1.0000
  H   H24       1.0  0.7249867291140363  0.858977858754173  0.0837675368121609  1.0000
  H   H25       1.0  0.9108593129233429  0.5530611749758024  0.6252247994980208  1.0000
  H   H26       1.0  0.5530612812817425  0.9108592157324225  0.1252245182864017  1.0000
  H   H27       1.0  0.8893812144440434  0.6469895960085595  0.7057218138094042  1.0000
  H   H28       1.0  0.6469884833510947  0.8893816621468175  0.20572247730434162  1.0000
  H   H29       1.0  0.8962466319430151  0.8750025487463592  0.11468486280222828  1.0000
  H   H30       1.0  0.8750027502760391  0.8962463135130394  0.6146849579703328  1.0000
  H   H31       1.0  0.1867272231772574  0.010739883461575101  0.8563768339499658  1.0000
  H   H32       1.0  0.010739482609288583  0.1867271032108989  0.3563768080611921  1.0000
  H   H33       1.0  0.12159253986764901  0.2143993559083768  0.909216562839873  1.0000
  H   H34       1.0  0.2143996312863763  0.12159273230831505  0.409216408402898  1.0000
  H   H35       1.0  0.9376363252555958  0.24861139792400175  0.0620081657540369  1.0000
  H   H36       1.0  0.24861103807957366  0.9376369957027325  0.5620077568605594  1.0000
  H   H37       1.0  0.3432656535834084  0.4038954778025571  0.1345646160470437  1.0000
  H   H38       1.0  0.403895145520643  0.3432661290995044  0.6345646837673228  1.0000
  H   H39       1.0  0.36902833814308167  0.0018646421050192007  0.2731257252742126  1.0000
  H   H40       1.0  0.0018647207001266013  0.3690281123761921  0.7731256312114496  1.0000
  H   H41       1.0  0.2056607521357989  0.018808701995851607  0.18918395104275723  1.0000
  H   H42       1.0  0.018809308664536686  0.2056610499353725  0.689183659827023  1.0000
  H   H43       1.0  0.11108165237213537  0.23155423396083566  0.0806561060769937  1.0000
  H   H44       1.0  0.23155482782962616  0.11108154746088421  0.5806561093079736  1.0000
  H   H45       1.0  0.10072798518605446  0.8453548782242779  0.22517346991907058  1.0000
  H   H46       1.0  0.8453556385420954  0.10072799457694265  0.7251730638027566  1.0000
  H   H47       1.0  0.18701117333625913  0.46895811471502225  0.5196361400976881  1.0000
  H   H48       1.0  0.4689596351826567  0.1870086302624047  0.01963583323470888  1.0000
  H   H49       1.0  0.2047568817189571  0.6806776877640318  0.5117931043044591  1.0000
  H   H50       1.0  0.680677214398841  0.2047582591250361  0.011792358243660343  1.0000
  H   H51       1.0  0.15928817892788047  0.8703294449754826  0.36499242237921686  1.0000
  H   H52       1.0  0.8703288277074678  0.15929218630325442  0.8649905625836708  1.0000
  C   C1        1.0  0.5500805859594066  0.5230241607886372  0.78311805680773  1.0000
  C   C2        1.0  0.5230239001914399  0.5500812163062748  0.283117175598285  1.0000
  C   C3        1.0  0.6789724664581699  0.5221306435169667  0.7442741554813991  1.0000
  C   C4        1.0  0.5221307374048222  0.6789720357544483  0.2442740880025767  1.0000
  C   C5        1.0  0.7122070340204233  0.6386124688031742  0.6950557605324476  1.0000
  C   C6        1.0  0.6386128889770716  0.7122070757733285  0.1950555125921483  1.0000
  C   C7        1.0  0.6102457023585258  0.7526653279774751  0.6903115137838397  1.0000
  C   C8        1.0  0.752664642594496  0.6102457712452394  0.19031169735256268  1.0000
  C   C9        1.0  0.4834666232105391  0.7465221837308179  0.7312654785500924  1.0000
  C   C10       1.0  0.7465212396782875  0.4834674614994726  0.23126489907465936  1.0000
  C   C11       1.0  0.7646719795816139  0.5333408645485707  0.9840221319843607  1.0000
  C   C12       1.0  0.5333416594022181  0.7646713924838624  0.48402255260450716  1.0000
  C   C13       1.0  0.6351312093105932  0.5374130233630653  0.015494129383249275  1.0000
  C   C14       1.0  0.5374133654568355  0.6351333379623371  0.5154927556922784  1.0000
  C   C15       1.0  0.5413578660841762  0.6566120762022934  0.9976902729282953  1.0000
  C   C16       1.0  0.6566130745261843  0.5413572265704905  0.4976887900376709  1.0000
  C   C17       1.0  0.717139210253883  0.7549536499134748  0.9162119438051092  1.0000
  C   C18       1.0  0.7549541435165282  0.7171382505254231  0.41621202459923257  1.0000
  C   C19       1.0  0.45589361500851305  0.18875611270555487  0.26631421678737865  1.0000
  C   C20       1.0  0.18875604534063933  0.455893378037267  0.7663149110313725  1.0000
  C   C21       1.0  0.07506165479986035  0.817709602843927  0.9414324709285038  1.0000
  C   C22       1.0  0.8177093148844818  0.075060674702442  0.4414324976857031  1.0000
  C   C23       1.0  0.8051924262499667  0.08505038848720403  0.19374987271523034  1.0000
  C   C24       1.0  0.08505156086525992  0.8051914439522894  0.6937494804380362  1.0000
  C   C25       1.0  0.9087971500114805  0.06284837470002462  0.09895071448760007  1.0000
  C   C26       1.0  0.06284808834187317  0.9087970381034084  0.5989504182474689  1.0000
  C   C27       1.0  0.17577153843606644  0.44939235902362656  0.021525835040350178  1.0000
  C   C28       1.0  0.4493927799773516  0.17577132190667302  0.5215246347025371  1.0000
  C   C29       1.0  0.22232146836164896  0.32974819307150244  0.0992711082091375  1.0000
  C   C30       1.0  0.329748609890828  0.2223215658344985  0.599271782954112  1.0000
  C   C31       1.0  0.5858736154616863  0.7663310257520451  0.9454146875049217  1.0000
  C   C32       1.0  0.7663303883143443  0.5858747362098526  0.4454145787821132  1.0000
  C   C33       1.0  0.4003049570813954  0.6664353523163842  0.03434405650689601  1.0000
  C   C34       1.0  0.6664350337142508  0.40030507113850433  0.534343654876231  1.0000
  C   C35       1.0  0.8500245921189633  0.6411214119758528  0.6495480282737488  1.0000
  C   C36       1.0  0.6411215373047766  0.8500248779750311  0.14954771742264958  1.0000
  C   C37       1.0  0.04298279226146925  0.9324996296177802  0.9803459150443388  1.0000
  C   C38       1.0  0.9324991788879586  0.042982972890413904  0.4803457408475539  1.0000
  C   C39       1.0  0.9449763225149894  0.9495164391597515  0.06923036337798306  1.0000
  C   C40       1.0  0.9495163384261571  0.9449759088770977  0.5692305867931536  1.0000
  C   C41       1.0  0.1089791575996983  0.0265882279351004  0.9242108645278149  1.0000
  C   C42       1.0  0.02658791742322821  0.10897993087216662  0.4242106113172638  1.0000
  C   C43       1.0  0.0719767106376636  0.14020982484496616  0.9534185696262225  1.0000
  C   C44       1.0  0.1402096046825108  0.07197831905097732  0.4534181383024886  1.0000
  C   C45       1.0  0.9701387753717441  0.15956539630828814  0.038881672836524266  1.0000
  C   C46       1.0  0.15956465525712094  0.9701390554010633  0.5388821009626168  1.0000
  C   C47       1.0  0.36222398871851885  0.20234143020857692  0.21138309352298984  1.0000
  C   C48       1.0  0.20234196551288616  0.36222338687235134  0.7113837812176483  1.0000
  C   C49       1.0  0.3120441748783449  0.32026001744842614  0.14713116050701558  1.0000
  C   C50       1.0  0.32026126931951626  0.3120438569922116  0.6471309724469378  1.0000
  C   C51       1.0  0.32588695310803933  0.09304618181890591  0.224655351434059  1.0000
  C   C52       1.0  0.09304665910914166  0.32588583423360973  0.7246554753872798  1.0000
  C   C53       1.0  0.2351334412160071  0.10305794331857504  0.17835990572362445  1.0000
  C   C54       1.0  0.1030583419233722  0.23513357696543125  0.6783597515275231  1.0000
  C   C55       1.0  0.18182706686881997  0.2218744225533343  0.11747823239363697  1.0000
  C   C56       1.0  0.2218749831190294  0.18182710570223296  0.6174788442936645  1.0000
  C   C57       1.0  0.11288879535046448  0.6442200103205241  0.293835088259108  1.0000
  C   C58       1.0  0.6442185546340724  0.11288878317700582  0.7938358852803375  1.0000
  C   C59       1.0  0.13534300680705505  0.5385725985046649  0.377853992184896  1.0000
  C   C60       1.0  0.5385734293482402  0.13534229588561436  0.8778535763274246  1.0000
  C   C61       1.0  0.12174275582837173  0.7635811623276042  0.2896412072970093  1.0000
  C   C62       1.0  0.7635821886544675  0.12174032592786693  0.7896413629646586  1.0000
  C   C63       1.0  0.1691143158064533  0.5521392274558609  0.4555574177334093  1.0000
  C   C64       1.0  0.552138036329829  0.16911482631315522  0.9555565327010809  1.0000
  C   C65       1.0  0.17914581287450906  0.6708204137643037  0.45047142733589846  1.0000
  C   C66       1.0  0.6708217171808428  0.17914684165322114  0.9504704303562261  1.0000
  C   C67       1.0  0.15452532049791054  0.7767038585965198  0.36788068266834967  1.0000
  C   C68       1.0  0.7767044619658917  0.15452639926220973  0.8678792597541685  1.0000
  N   N1        1.0  0.4532740513050513  0.6335300179978489  0.7760564473385044  1.0000
  N   N2        1.0  0.6335293115177832  0.4532738088924191  0.2760560612555025  1.0000
  N   N3        1.0  0.805689038094755  0.6402601231337999  0.9360401125000164  1.0000
  N   N4        1.0  0.6402609519364046  0.8056889093662252  0.4360404302363036  1.0000
  Cl  Cl1       1.0  0.07351804376676088  0.6290099206267855  0.1961834800528237  1.0000
  Cl  Cl2       1.0  0.6290089246425481  0.07351625321605582  0.6961846674428925  1.0000
  Cl  Cl3       1.0  0.11934636763299976  0.3917993160850132  0.3879253748048227  1.0000
  Cl  Cl4       1.0  0.3917998849386138  0.11934416058657862  0.887926072380864  1.0000
  O   O1        1.0  0.06151565221077248  0.47575771110632575  0.014738145947212903  1.0000
  O   O2        1.0  0.47575718188958405  0.061515885649313914  0.5147378550917381  1.0000
  O   O3        1.0  0.2576381970327048  0.5125345496375078  0.9653363517976884  1.0000
  O   O4        1.0  0.5125343823977319  0.25763818309782494  0.4653364754000434  1.0000
  O   O5        1.0  0.5104043824891491  0.07299885246000312  0.30878677166401747  1.0000
  O   O6        1.0  0.0729980615537613  0.5104034466693221  0.80878708846285  1.0000
  O   O7        1.0  0.47387637839760527  0.29029904881239343  0.26727302488593097  1.0000
  O   O8        1.0  0.29029658627246135  0.47387784745273387  0.7672739637137054  1.0000
  O   O9        1.0  0.989930748297148  0.7566818197933645  0.9742725332950286  1.0000
  O   O10       1.0  0.7566829596106713  0.9899304931713859  0.4742727595191524  1.0000
  O   O11       1.0  0.18321090186377376  0.7921172252694364  0.8767639633822949  1.0000
  O   O12       1.0  0.7921166997404682  0.18321109520034903  0.376763646399354  1.0000
  O   O13       1.0  0.786727403289774  0.9868102837219798  0.2667859953467513  1.0000
  O   O14       1.0  0.9868103871728663  0.7867260354743667  0.7667851723562862  1.0000
  O   O15       1.0  0.7449519878392651  0.20294544734515096  0.19282030144065482  1.0000
  O   O16       1.0  0.20294498527805863  0.744952281465288  0.6928207996474497  1.0000
