data_image0
_chemical_formula_structural       Zn4H22C30N4O18
_chemical_formula_sum              "Zn4 H22 C30 N4 O18"
_cell_length_a       8.688550773988668
_cell_length_b       9.485618172141768
_cell_length_c       11.113386860381508
_cell_angle_alpha    79.06388140067794
_cell_angle_beta     77.1392673491129
_cell_angle_gamma    69.14476908989431

_space_group_name_H-M_alt    "P 1"
_space_group_IT_number       1

loop_
  _space_group_symop_operation_xyz
  'x, y, z'

loop_
  _atom_site_type_symbol
  _atom_site_label
  _atom_site_symmetry_multiplicity
  _atom_site_fract_x
  _atom_site_fract_y
  _atom_site_fract_z
  _atom_site_occupancy
  Zn  Zn1       1.0  0.8943332869450916  0.3604292484516805  0.6586318375691463  1.0000
  Zn  Zn2       1.0  0.10565889617632963  0.6395727836790074  0.34137440197382335  1.0000
  Zn  Zn3       1.0  0.5560659637986517  0.22764528770782985  0.007989920563744637  1.0000
  Zn  Zn4       1.0  0.4439380235166154  0.7723442821519556  0.9920110055316731  1.0000
  H   H1        1.0  0.8480345222635037  0.9954045693256002  0.9810789219943391  1.0000
  H   H2        1.0  0.1519616751005657  0.004594094789425199  0.01891461230254521  1.0000
  H   H3        1.0  0.7883591251117181  0.9877984917143436  0.12597434868636984  1.0000
  H   H4        1.0  0.2116479712775714  0.012202482721590998  0.8740189498954937  1.0000
  H   H5        1.0  0.3645370076303038  0.2094000981846662  0.21330740709672116  1.0000
  H   H6        1.0  0.6354621973448925  0.7905962871029646  0.7866914128179447  1.0000
  H   H7        1.0  0.4079482406328268  0.3670022363371359  0.6254290746813002  1.0000
  H   H8        1.0  0.5920449441055169  0.6330009554434497  0.37456963170170365  1.0000
  H   H9        1.0  0.5921852502256827  0.12663094940466382  0.30402319131984984  1.0000
  H   H10       1.0  0.4078149767175674  0.8733722652219171  0.6959753248559083  1.0000
  H   H11       1.0  0.8565801568527505  0.9736125186123697  0.6130742329610332  1.0000
  H   H12       1.0  0.1434265287816032  0.0264089359670407  0.3869168919284364  1.0000
  H   H13       1.0  0.004348194053910962  0.6277860780001774  0.628881155380981  1.0000
  H   H14       1.0  0.9956418934351705  0.3722182158622616  0.3711277614767284  1.0000
  H   H15       1.0  0.18800204357305697  0.7069471883566224  0.7271963552093655  1.0000
  H   H16       1.0  0.8119968947419524  0.2930491756332998  0.27281061018116054  1.0000
  H   H17       1.0  0.21519679280723378  0.31301584174019575  0.002010013276816405  1.0000
  H   H18       1.0  0.7848113265149053  0.6869691999232757  0.9979873682948796  1.0000
  H   H19       1.0  0.02799966902716014  0.25292271688358886  0.8945268840200884  1.0000
  H   H20       1.0  0.9719931694420579  0.7470747791774033  0.10547454852346765  1.0000
  H   H21       1.0  0.4193266951177037  0.045471296955490494  0.1545175744444195  1.0000
  H   H22       1.0  0.5806705370039749  0.9545239410450673  0.845482625803442  1.0000
  C   C1        1.0  0.634953684764973  0.17323601980701397  0.6324706015226698  1.0000
  C   C2        1.0  0.3650428792193594  0.826774009716658  0.36752743603472754  1.0000
  C   C3        1.0  0.4998500659998725  0.2738284159900814  0.5777194987319593  1.0000
  C   C4        1.0  0.5001443270063531  0.7261747823589887  0.4222781200548128  1.0000
  C   C5        1.0  0.4834276044788694  0.25663886678051273  0.4595115832391274  1.0000
  C   C6        1.0  0.5165694370797953  0.743366612474986  0.5404870776361012  1.0000
  C   C7        1.0  0.6018109508574484  0.13844347158731551  0.39724330626648213  1.0000
  C   C8        1.0  0.39818962235493427  0.8615654387588662  0.6027524837487237  1.0000
  C   C9        1.0  0.7352806360278662  0.036317638069562  0.4521979333300124  1.0000
  C   C10       1.0  0.26472220557572956  0.9636912735815173  0.54780020675711  1.0000
  C   C11       1.0  0.752078900418887  0.0536442768517986  0.5706490934767602  1.0000
  C   C12       1.0  0.24792511556049135  0.9463680574858272  0.4293465408370453  1.0000
  C   C13       1.0  0.646123394975575  0.19549166977045468  0.7596648079041444  1.0000
  C   C14       1.0  0.3538733595717714  0.8045081184982764  0.24033476902588555  1.0000
  C   C15       1.0  0.3443558437925063  0.36629187021705434  0.39657608814555106  1.0000
  C   C16       1.0  0.6556325713953298  0.6337078815379587  0.6034274817465717  1.0000
  C   C17       1.0  0.8597702912610717  0.9118801482605292  0.3813197368653577  1.0000
  C   C18       1.0  0.14024038249878862  0.0881333478060284  0.6186746919947128  1.0000
  C   C19       1.0  0.055650568559627765  0.5603831510410231  0.7103018387648279  1.0000
  C   C20       1.0  0.9443448295752931  0.4396166188271593  0.2897033510257998  1.0000
  C   C21       1.0  0.15733051291890385  0.6038853874165679  0.7651443572349665  1.0000
  C   C22       1.0  0.8426729671931242  0.3961087303449773  0.2348568505954989  1.0000
  C   C23       1.0  0.2222891646156953  0.5132733827137342  0.8695498082917584  1.0000
  C   C24       1.0  0.7777159717096255  0.48671618898170993  0.13045184031318507  1.0000
  C   C25       1.0  0.17490772423180082  0.3848195583336889  0.9183354434191033  1.0000
  C   C26       1.0  0.825094285966749  0.615172282723492  0.08166453977955265  1.0000
  C   C27       1.0  0.07014196312353256  0.3501739336637541  0.8592919465276057  1.0000
  C   C28       1.0  0.92985995392511  0.6498213187786632  0.14070842859971586  1.0000
  C   C29       1.0  0.3290447247708457  0.5663815779149034  0.9251997402203007  1.0000
  C   C30       1.0  0.6709640956159361  0.4336080182188056  0.07479683549021131  1.0000
  N   N1        1.0  0.45417293488671356  0.4660347231195843  0.9782726218531511  1.0000
  N   N2        1.0  0.5458338830176286  0.5339537233606323  0.021726239243435027  1.0000
  N   N3        1.0  0.014548433849938563  0.43366612639889723  0.7558027713189053  1.0000
  N   N4        1.0  0.9854433944759792  0.5663370469811396  0.24420154792469626  1.0000
  O   O1        1.0  0.7424606759379131  0.2597695781813486  0.7785497940326496  1.0000
  O   O2        1.0  0.2575486762664239  0.7402177212551778  0.2214560525938368  1.0000
  O   O3        1.0  0.5490405996314535  0.14884997448390183  0.8505649150506189  1.0000
  O   O4        1.0  0.45096296936730346  0.8511441503768893  0.1494335776212239  1.0000
  O   O5        1.0  0.25549449809105346  0.48713445799261706  0.4490319883876383  1.0000
  O   O6        1.0  0.7444798115844404  0.5128584087350417  0.5509775134317751  1.0000
  O   O7        1.0  0.32056334327508296  0.34146278231442295  0.29611735720380494  1.0000
  O   O8        1.0  0.6794361487114318  0.6585392939599757  0.703880546656052  1.0000
  O   O9        1.0  0.9496668360214073  0.796424877725343  0.4466736701080978  1.0000
  O   O10       1.0  0.0503373527168378  0.20358971964892453  0.5533269915923642  1.0000
  O   O11       1.0  0.8731983808312336  0.9238518688356193  0.2650644203981544  1.0000
  O   O12       1.0  0.12682054766460032  0.07615823816094289  0.734931053888403  1.0000
  O   O13       1.0  0.293266703700546  0.7115121217233096  0.9147700162243669  1.0000
  O   O14       1.0  0.7067388170491924  0.28847631108919103  0.08523264762707339  1.0000
  O   O15       1.0  0.7509882071149362  0.9978675974710997  0.04537860520347444  1.0000
  O   O16       1.0  0.2490151002382248  0.0021242572538042992  0.9546175752403347  1.0000
  O   O17       1.0  0.3859955497462835  0.15755265753350048  0.13668150233259987  1.0000
  O   O18       1.0  0.6140060125068556  0.8424437361582663  0.8633169524953532  1.0000
