data_image0
_chemical_formula_structural       Zn4H28C32N4O20
_chemical_formula_sum              "Zn4 H28 C32 N4 O20"
_cell_length_a       8.237026653002603
_cell_length_b       8.902553184101066
_cell_length_c       11.734813886200326
_cell_angle_alpha    102.25804207065757
_cell_angle_beta     90.00004334906738
_cell_angle_gamma    90.00006893064781

_space_group_name_H-M_alt    "P 1"
_space_group_IT_number       1

loop_
  _space_group_symop_operation_xyz
  'x, y, z'

loop_
  _atom_site_type_symbol
  _atom_site_label
  _atom_site_symmetry_multiplicity
  _atom_site_fract_x
  _atom_site_fract_y
  _atom_site_fract_z
  _atom_site_occupancy
  Zn  Zn1       1.0  0.9675355941749685  0.721462688034599  0.5916189197212989  1.0000
  Zn  Zn2       1.0  0.4675325629977394  0.7785380028227354  0.9083809633576228  1.0000
  Zn  Zn3       1.0  0.03246599863224021  0.2785366517314928  0.40838084129637775  1.0000
  Zn  Zn4       1.0  0.5324641736903857  0.22146364652404327  0.09162000589382303  1.0000
  H   H1        1.0  0.869043543184027  0.5755608729555278  0.3952142558388943  1.0000
  H   H2        1.0  0.36904158985186797  0.9244384537230558  0.10478648586300209  1.0000
  H   H3        1.0  0.1309592636531107  0.4244373281056611  0.6047861818446523  1.0000
  H   H4        1.0  0.6309563608670317  0.07556320634869004  0.8952153372443662  1.0000
  H   H5        1.0  0.74897476654089  0.5434896845383791  0.498896262304804  1.0000
  H   H6        1.0  0.24897395764953245  0.9565083124760749  0.001102504880066113  1.0000
  H   H7        1.0  0.25102561223554426  0.45650964450274506  0.5011026448569568  1.0000
  H   H8        1.0  0.7510239930654449  0.04348986713357311  0.9988962250907324  1.0000
  H   H9        1.0  0.8448043444529746  0.8308181687625266  0.3290632831049366  1.0000
  H   H10       1.0  0.34479970228272083  0.6691776775691951  0.1709369089342375  1.0000
  H   H11       1.0  0.15519967641446897  0.16918003229946527  0.6709371545790648  1.0000
  H   H12       1.0  0.655197034402498  0.33081938478227363  0.8290642054124577  1.0000
  H   H13       1.0  0.3453402246952706  0.9710917332506316  0.3250936424726023  1.0000
  H   H14       1.0  0.8453333827428863  0.5289075406295967  0.17490537382494867  1.0000
  H   H15       1.0  0.65466501019894  0.028904126055771015  0.6749030254098687  1.0000
  H   H16       1.0  0.1546609258836895  0.471094087267254  0.8250938877146584  1.0000
  H   H17       1.0  0.48927434367140415  0.6467656763996106  0.5310664680652553  1.0000
  H   H18       1.0  0.989270666870439  0.8532327550704438  0.9689339307140732  1.0000
  H   H19       1.0  0.5107296771960393  0.3532325246623814  0.4689339696187461  1.0000
  H   H20       1.0  0.010726069817309301  0.14676775557062888  0.031067715202787814  1.0000
  H   H21       1.0  0.043765591382161496  0.9559713116140148  0.7297250607291946  1.0000
  H   H22       1.0  0.5437673696457067  0.5440288295499088  0.7702753599151821  1.0000
  H   H23       1.0  0.9562323593345851  0.04402803887383301  0.270275554142593  1.0000
  H   H24       1.0  0.45623300913333503  0.4559728197992783  0.22972560933762765  1.0000
  H   H25       1.0  0.9106274875073482  0.008434290099451404  0.6426252639763137  1.0000
  H   H26       1.0  0.4106271065324877  0.4915665927595186  0.857374756140395  1.0000
  H   H27       1.0  0.0893728912695551  0.9915650496658376  0.3573744970409154  1.0000
  H   H28       1.0  0.5893720582158724  0.5084339178831601  0.14262688977737537  1.0000
  C   C1        1.0  0.679449762330357  0.7270780370989061  0.43204546281968714  1.0000
  C   C2        1.0  0.17944878656702204  0.77291988941942  0.06795496018425248  1.0000
  C   C3        1.0  0.3205530445079958  0.27292245209785904  0.5679544753885041  1.0000
  C   C4        1.0  0.8205515922116432  0.22708062122406153  0.9320466857339657  1.0000
  C   C5        1.0  0.7199024901107549  0.8251202129237997  0.35785856600101357  1.0000
  C   C6        1.0  0.21990025250355666  0.6748765962127908  0.14214000229441134  1.0000
  C   C7        1.0  0.28010031672498314  0.17487795596490233  0.6421393101161288  1.0000
  C   C8        1.0  0.78009648418233  0.3251238715316306  0.8578582282005771  1.0000
  C   C9        1.0  0.5991465740700407  0.9129842056765088  0.31956201409089874  1.0000
  C   C10       1.0  0.0991394072413812  0.5870135824671296  0.18043578740794436  1.0000
  C   C11       1.0  0.40085987485531394  0.08701280306056701  0.6804348309820798  1.0000
  C   C12       1.0  0.9008536873523666  0.4129845971393068  0.8195629425610425  1.0000
  C   C13       1.0  0.43845025192150894  0.90332697405686  0.3564666799774658  1.0000
  C   C14       1.0  0.9384458924363839  0.5966724122355488  0.14353155196064907  1.0000
  C   C15       1.0  0.5615525549137671  0.09667118410767733  0.6435303422842156  1.0000
  C   C16       1.0  0.061553272310114  0.40332805551048534  0.8564666785352489  1.0000
  C   C17       1.0  0.3987963583440575  0.8074692586139707  0.4322209020233673  1.0000
  C   C18       1.0  0.8987920421499851  0.6925289579802156  0.06777968469439345  1.0000
  C   C19       1.0  0.6012076625225475  0.19252779301814374  0.5677793584705813  1.0000
  C   C20       1.0  0.10120590856676158  0.30747039250762503  0.9322209301774013  1.0000
  C   C21       1.0  0.5204105948037636  0.7205762120006797  0.4711895301116373  1.0000
  C   C22       1.0  0.020408371452681696  0.7794249310344626  0.028809598048027938  1.0000
  C   C23       1.0  0.4795922120358115  0.2794265653316615  0.5288099086211986  1.0000
  C   C24       1.0  0.9795895792656637  0.22057784629466684  0.9711898406829891  1.0000
  C   C25       1.0  0.6381381703113431  0.013889572849024003  0.2359276743467334  1.0000
  C   C26       1.0  0.13813404002412707  0.48611315328825827  0.264072752238441  1.0000
  C   C27       1.0  0.3618646365260787  0.9861108948994189  0.7640705561505217  1.0000
  C   C28       1.0  0.8618614826349145  0.5138907841933006  0.7359277175372015  1.0000
  C   C29       1.0  0.2268678242026851  0.7925368667105064  0.4688271041173025  1.0000
  C   C30       1.0  0.7268647021626647  0.7074645493563879  0.031172178136770944  1.0000
  C   C31       1.0  0.7731361966651348  0.20746247305719123  0.5311726569012836  1.0000
  C   C32       1.0  0.27313203452415286  0.2925359398363625  0.9688277600691539  1.0000
  N   N1        1.0  0.8013917782460637  0.630534593770044  0.4664380555750542  1.0000
  N   N2        1.0  0.3013908910544886  0.8694646327180281  0.03356178177811132  1.0000
  N   N3        1.0  0.198609814561145  0.3694647459960479  0.5335617054426223  1.0000
  N   N4        1.0  0.6986082736934093  0.1305358672004858  0.9664390102841838  1.0000
  O   O1        1.0  0.7814993694554887  0.039735917465364416  0.20877854344070101  1.0000
  O   O2        1.0  0.2814928066503342  0.46026698753622947  0.29122113628947244  1.0000
  O   O3        1.0  0.21850465141309167  0.9602656997137449  0.7912198642470616  1.0000
  O   O4        1.0  0.718501501977549  0.539735800514656  0.7087791562956556  1.0000
  O   O5        1.0  0.5123039408639443  0.06844687508554874  0.19206722710884358  1.0000
  O   O6        1.0  0.012301000770001699  0.43155573826203425  0.30793737483444533  1.0000
  O   O7        1.0  0.48769765194549564  0.9315536462828934  0.8079352726652973  1.0000
  O   O8        1.0  0.9876969499510506  0.5684482313936171  0.692065656508497  1.0000
  O   O9        1.0  0.1127878520405545  0.8650267970279302  0.4327837669298163  1.0000
  O   O10       1.0  0.6127846744631497  0.6349744467239021  0.06721372246673953  1.0000
  O   O11       1.0  0.8872161688267965  0.13497253201560974  0.5672151402333088  1.0000
  O   O12       1.0  0.3872132762539805  0.36502604246965126  0.9327862157396399  1.0000
  O   O13       1.0  0.20002923406210726  0.7008873751690675  0.5385743474101974  1.0000
  O   O14       1.0  0.7000279069220808  0.7991163780388677  0.961423306012762  1.0000
  O   O15       1.0  0.79997235874594  0.2991131140268949  0.46142559079753925  1.0000
  O   O16       1.0  0.29997125782573153  0.2008852498611944  0.03857595552865691  1.0000
  O   O17       1.0  0.935521802215554  0.9283712373757358  0.6899866217031063  1.0000
  O   O18       1.0  0.43552203863247024  0.571627133735248  0.8100145908135307  1.0000
  O   O19       1.0  0.06447736253150539  0.07162811311291513  0.31001399316913597  1.0000
  O   O20       1.0  0.5644783401453636  0.42837222747837  0.18998687791462748  1.0000
