data_image0
_chemical_formula_structural       Ag12H30C24N2O30
_chemical_formula_sum              "Ag12 H30 C24 N2 O30"
_cell_length_a       7.932627654125641
_cell_length_b       10.142184044507774
_cell_length_c       13.725302351949287
_cell_angle_alpha    74.08582353479254
_cell_angle_beta     81.07472963462382
_cell_angle_gamma    67.80764386130322

_space_group_name_H-M_alt    "P 1"
_space_group_IT_number       1

loop_
  _space_group_symop_operation_xyz
  'x, y, z'

loop_
  _atom_site_type_symbol
  _atom_site_label
  _atom_site_symmetry_multiplicity
  _atom_site_fract_x
  _atom_site_fract_y
  _atom_site_fract_z
  _atom_site_occupancy
  Ag  Ag1       1.0  0.16706279404650096  0.3252214896231465  0.9999919480983553  1.0000
  Ag  Ag2       1.0  0.8329328866766588  0.6747823838614552  6.482524376739513e-06  1.0000
  Ag  Ag3       1.0  0.8796813371890546  0.9501953982461661  0.9487290787003247  1.0000
  Ag  Ag4       1.0  0.12031651275273694  0.049806377516844705  0.05126663386923271  1.0000
  Ag  Ag5       1.0  0.15664584060203166  0.35235160878439603  0.6760544478081557  1.0000
  Ag  Ag6       1.0  0.8433543612483089  0.6476477128595803  0.3239487999139144  1.0000
  Ag  Ag7       1.0  0.8553769488551095  0.36247322266000026  0.45738358915273386  1.0000
  Ag  Ag8       1.0  0.1446249514371444  0.6375250966679077  0.542616777701433  1.0000
  Ag  Ag9       1.0  0.4803129539809559  0.362242497209138  0.5657315468880242  1.0000
  Ag  Ag10      1.0  0.5196819176566121  0.6377602896083019  0.43426716074475996  1.0000
  Ag  Ag11      1.0  0.8101172664061165  0.0872093744062141  0.5449450280143966  1.0000
  Ag  Ag12      1.0  0.18988312823594794  0.9127954322456449  0.45505644487151653  1.0000
  H   H1        1.0  0.515930849792518  0.08941597118664649  0.08414571698470752  1.0000
  H   H2        1.0  0.4840696251202841  0.9105856598148278  0.9158534290534066  1.0000
  H   H3        1.0  0.556134678203186  0.1977223900938512  0.985575651688848  1.0000
  H   H4        1.0  0.4438628986761372  0.802277076311654  0.014424162564679916  1.0000
  H   H5        1.0  0.8295718643628615  0.8944639376370276  0.15260438190064468  1.0000
  H   H6        1.0  0.1704255930978888  0.10553878078975741  0.8473955620851827  1.0000
  H   H7        1.0  0.6851069443130694  0.8339520236851855  0.1395073212824371  1.0000
  H   H8        1.0  0.3148914286025643  0.16604855484445122  0.8604914835892006  1.0000
  H   H9        1.0  0.26336069588978006  0.1656121896925384  0.5321603755360373  1.0000
  H   H10       1.0  0.7366381999996959  0.8343871916037245  0.4678415216376807  1.0000
  H   H11       1.0  0.39788006350696736  0.07114359175139381  0.6238198191834031  1.0000
  H   H12       1.0  0.6021188323825084  0.9288557895448689  0.3761820779903147  1.0000
  H   H13       1.0  0.9875020107260322  0.9528902184977854  0.714610759171606  1.0000
  H   H14       1.0  0.012499770147641694  0.04711135285139529  0.2853897374148602  1.0000
  H   H15       1.0  0.0831447081470671  0.07221566391427099  0.6472065234368147  1.0000
  H   H16       1.0  0.9168583003917941  0.9277860005243856  0.35279092946700535  1.0000
  H   H17       1.0  0.8895927299132961  0.12874355838130214  0.7128866536355789  1.0000
  H   H18       1.0  0.1104124328198636  0.871259056701341  0.28711406992204763  1.0000
  H   H19       1.0  0.44740207459257403  0.6525854855479096  0.91084875540777  1.0000
  H   H20       1.0  0.5525912310709482  0.34741502610736325  0.08915343573244881  1.0000
  H   H21       1.0  0.47031131410021476  0.413305747068165  0.9314031870215091  1.0000
  H   H22       1.0  0.5296931720152143  0.586692503869081  0.06859841618570073  1.0000
  H   H23       1.0  0.7333768224988191  0.47655594571102705  0.8942652956775989  1.0000
  H   H24       1.0  0.26663064192081987  0.523441294171789  0.10573331246638426  1.0000
  H   H25       1.0  0.8919333809799067  0.5324677621696594  0.7413018536844266  1.0000
  H   H26       1.0  0.10806800938777869  0.46753172893466655  0.258696153239498  1.0000
  H   H27       1.0  0.6702691015186273  0.7211197225921708  0.8091887455468837  1.0000
  H   H28       1.0  0.32973295734004165  0.2788752683435903  0.1908136886904758  1.0000
  H   H29       1.0  0.3689407126365293  0.851523658769125  0.7701512200983773  1.0000
  H   H30       1.0  0.6310590053878116  0.14847678373734402  0.22985113243712632  1.0000
  C   C1        1.0  0.38624797292568747  0.6345903424646197  0.8505555002056369  1.0000
  C   C2        1.0  0.6137510032345259  0.36540586318125184  0.1494440701202748  1.0000
  C   C3        1.0  0.49029279106726154  0.47081070268671243  0.8526398670764409  1.0000
  C   C4        1.0  0.5097095800017113  0.5291865212356656  0.14736066259246172  1.0000
  C   C5        1.0  0.6955268549005423  0.4452179679896277  0.8318201965144  1.0000
  C   C6        1.0  0.3044779042773483  0.5547825923051237  0.1681773050088466  1.0000
  C   C7        1.0  0.7486388292289942  0.547440037311972  0.7347170909066989  1.0000
  C   C8        1.0  0.25136160653597267  0.45256167006037623  0.2652798580159015  1.0000
  C   C9        1.0  0.6341357244256893  0.7067006544292981  0.7391003675594305  1.0000
  C   C10       1.0  0.36586142082475676  0.2932998310108631  0.2609014809948534  1.0000
  C   C11       1.0  0.42526205272329765  0.7415025312332518  0.7551635001751792  1.0000
  C   C12       1.0  0.5747355502545871  0.2584968842583423  0.24483777882201002  1.0000
  C   C13       1.0  0.18609994811164646  0.6810054641016025  0.8882969195342273  1.0000
  C   C14       1.0  0.813898557271841  0.31899183694979877  0.11170248797694174  1.0000
  C   C15       1.0  0.42659700408641726  0.3992689524690718  0.7874210661002297  1.0000
  C   C16       1.0  0.5734098701379221  0.6007326348405543  0.21257750896131714  1.0000
  C   C17       1.0  0.8091551986603418  0.2819724152918753  0.850510822112817  1.0000
  C   C18       1.0  0.19084304178743122  0.7180314407159899  0.1494873801192966  1.0000
  C   C19       1.0  0.7423548831137617  0.5200851018987295  0.6310107002000509  1.0000
  C   C20       1.0  0.2576452795887433  0.479914296116121  0.3689903504065201  1.0000
  C   C21       1.0  0.6846129884830029  0.8234426239981334  0.6551443646534596  1.0000
  C   C22       1.0  0.31539019167156107  0.1765556865914064  0.344855888005391  1.0000
  C   C23       1.0  0.3260355031000442  0.7550308586696772  0.6636445672901489  1.0000
  C   C24       1.0  0.6739669071167708  0.24496628888181957  0.3363581594942532  1.0000
  N   N1        1.0  0.9603059520368972  0.05624664449988613  0.6690771139353942  1.0000
  N   N2        1.0  0.03969665097164202  0.9437559880595005  0.3309238380128577  1.0000
  O   O1        1.0  0.13012412041594948  0.5899933029436326  0.9567051555677895  1.0000
  O   O2        1.0  0.8698752332009715  0.4100050084040562  0.043296172048826465  1.0000
  O   O3        1.0  0.09056553261489587  0.8152827848182796  0.8566122618566613  1.0000
  O   O4        1.0  0.9094274628133829  0.18471247094174  0.14338511277320987  1.0000
  O   O5        1.0  0.2746367054165403  0.37817158225985287  0.8124257296310378  1.0000
  O   O6        1.0  0.7253643727408484  0.621825675857856  0.18757418186134342  1.0000
  O   O7        1.0  0.5381722408274425  0.354610737305329  0.7163908655216888  1.0000
  O   O8        1.0  0.46182640317559254  0.6453951734904423  0.2836105587447977  1.0000
  O   O9        1.0  0.7424111697642458  0.19520777062614766  0.9178523398704714  1.0000
  O   O10       1.0  0.25758445876178354  0.804796204686298  0.0821431612649235  1.0000
  O   O11       1.0  0.9640062595223426  0.23724034109535105  0.8062360613994886  1.0000
  O   O12       1.0  0.035999334839693954  0.7627612549526365  0.19376262785737458  1.0000
  O   O13       1.0  0.882443236939842  0.4285884802254074  0.5945658619401686  1.0000
  O   O14       1.0  0.11755433993948107  0.5714109861800978  0.4054339523133522  1.0000
  O   O15       1.0  0.5977206588644675  0.5959042303434856  0.5855740998110124  1.0000
  O   O16       1.0  0.40227865560461123  0.40409415737508436  0.4144250306901044  1.0000
  O   O17       1.0  0.8075284124763511  0.7827820123657787  0.5866977006697243  1.0000
  O   O18       1.0  0.19246741376394275  0.21721855818363164  0.41330206496436983  1.0000
  O   O19       1.0  0.6052129177392086  0.9552143798860373  0.6624188104654751  1.0000
  O   O20       1.0  0.3947847374358061  0.0447849337777129  0.3375853980190585  1.0000
  O   O21       1.0  0.33026188037263876  0.8588856063559334  0.587186926065293  1.0000
  O   O22       1.0  0.6697383084284283  0.14111374074499855  0.41281558928494644  1.0000
  O   O23       1.0  0.2369869427582571  0.6701525275409281  0.674300605235523  1.0000
  O   O24       1.0  0.7630127491675224  0.3298479658794592  0.32570028255631206  1.0000
  O   O25       1.0  0.4558675504748278  0.1837192623651944  0.03676326442688803  1.0000
  O   O26       1.0  0.5441312129467873  0.816283396409297  0.9632380301072987  1.0000
  O   O27       1.0  0.7129757614853313  0.924948219746263  0.11952909644870148  1.0000
  O   O28       1.0  0.2870221798014183  0.07505337781802272  0.8804717427236997  1.0000
  O   O29       1.0  0.2772084035164184  0.14923054033049973  0.6060619452710442  1.0000
  O   O30       1.0  0.7227901671134802  0.8507666334361091  0.39394112409929255  1.0000
