data_image0
_chemical_formula_structural       K2Li2Sb4H8C16O24
_chemical_formula_sum              "K2 Li2 Sb4 H8 C16 O24"
_cell_length_a       6.370933523000194
_cell_length_b       8.868462051000133
_cell_length_c       12.514718339000325
_cell_angle_alpha    89.99998822360739
_cell_angle_beta     90.00002358794472
_cell_angle_gamma    89.9999844705747

_space_group_name_H-M_alt    "P 1"
_space_group_IT_number       1

loop_
  _space_group_symop_operation_xyz
  'x, y, z'

loop_
  _atom_site_type_symbol
  _atom_site_label
  _atom_site_symmetry_multiplicity
  _atom_site_fract_x
  _atom_site_fract_y
  _atom_site_fract_z
  _atom_site_occupancy
  K   K1        1.0  0.5000022343401939  0.24076879877488014  0.4999985023881521  1.0000
  K   K2        1.0  0.999999303896267  0.7592262443341368  4.712029519999999e-08  1.0000
  Li  Li1       1.0  0.5000005759650036  0.7115449013268177  0.5000000646188667  1.0000
  Li  Li2       1.0  0.999999392642991  0.2884523969645869  8.300751379999999e-08  1.0000
  Sb  Sb1       1.0  0.027784073681708297  0.22703706713016908  0.2952531347349634  1.0000
  Sb  Sb2       1.0  0.9722141216621409  0.22703691851069152  0.7047462693116343  1.0000
  Sb  Sb3       1.0  0.5277828729394045  0.7729637059452658  0.2047469137291102  1.0000
  Sb  Sb4       1.0  0.4722166862055133  0.7729636297255597  0.7952532061445226  1.0000
  H   H1        1.0  0.08628099367611237  0.8571462745552624  0.5851581391835623  1.0000
  H   H2        1.0  0.9137201033585641  0.8571462174878947  0.41484196785571475  1.0000
  H   H3        1.0  0.5862786304402264  0.142853221288469  0.9148412552289997  1.0000
  H   H4        1.0  0.4137211662716567  0.142853352797303  0.0851581616524584  1.0000
  H   H5        1.0  0.08775799458984321  0.6006982251024054  0.4166014288951629  1.0000
  H   H6        1.0  0.9122416295029155  0.6006992493108427  0.5833979181829392  1.0000
  H   H7        1.0  0.5877599760438628  0.39930253628692475  0.0833986321633304  1.0000
  H   H8        1.0  0.41224129360929856  0.39930243820243316  0.9166015446790396  1.0000
  C   C1        1.0  0.2180779109846682  0.9553188902384024  0.3971435265699554  1.0000
  C   C2        1.0  0.7819215794080279  0.9553176792770162  0.6028565655017957  1.0000
  C   C3        1.0  0.7180769025874055  0.044679590576109304  0.1028573609137737  1.0000
  C   C4        1.0  0.28192293113884404  0.04467726808141491  0.8971420709354732  1.0000
  C   C5        1.0  0.007232894218972801  0.9632481094821657  0.5620804959424603  1.0000
  C   C6        1.0  0.9927681628123535  0.9632480306319451  0.4379187958613429  1.0000
  C   C7        1.0  0.5072321592408215  0.0367514017637518  0.9379188818707506  1.0000
  C   C8        1.0  0.49276767747408473  0.03675152425118001  0.06208055118704439  1.0000
  C   C9        1.0  0.20327805743620078  0.48655438209254936  0.6125874826158579  1.0000
  C   C10       1.0  0.7967216096918224  0.4865543554058505  0.3874118818647574  1.0000
  C   C11       1.0  0.7032786715971542  0.5134462185453897  0.8874127354246041  1.0000
  C   C12       1.0  0.2967209853928026  0.5134452376764076  0.1125882230743969  1.0000
  C   C13       1.0  0.0153793061078247  0.49167594381685126  0.4384852621132183  1.0000
  C   C14       1.0  0.9846203590895826  0.4916758323816809  0.5615149006456903  1.0000
  C   C15       1.0  0.5153780895378475  0.5083248316756227  0.0615147837459418  1.0000
  C   C16       1.0  0.4846215693825116  0.5083247134372685  0.9384853764746808  1.0000
  O   O1        1.0  0.6658977563034371  0.5877060641045945  0.4062073293712061  1.0000
  O   O2        1.0  0.33410187268862773  0.5877038153146612  0.5937928187470689  1.0000
  O   O3        1.0  0.16589715497102733  0.41229468205963127  0.093792748095801  1.0000
  O   O4        1.0  0.8341041097841072  0.4122945046498216  0.9062082258249262  1.0000
  O   O5        1.0  0.28792967242722517  0.07191994776248119  0.3456666137061148  1.0000
  O   O6        1.0  0.7120701510286267  0.07191986377011972  0.6543336130490118  1.0000
  O   O7        1.0  0.7879283725135054  0.9280785194417049  0.1543334893868078  1.0000
  O   O8        1.0  0.21207112814905574  0.9280796075634328  0.8456666068378452  1.0000
  O   O9        1.0  0.12124619293499711  0.08862632050811212  0.5995900084609929  1.0000
  O   O10       1.0  0.8787536242218081  0.08862627424405642  0.40040941668793545  1.0000
  O   O11       1.0  0.6212482371855331  0.9113742961136355  0.9004085942352519  1.0000
  O   O12       1.0  0.3787512697744688  0.911374430445953  0.09958990641794678  1.0000
  O   O13       1.0  0.2441590827654991  0.37141715716546747  0.6734374468683838  1.0000
  O   O14       1.0  0.7558390581437565  0.37141715526851016  0.32656273422507803  1.0000
  O   O15       1.0  0.7441611740332518  0.6285823079156287  0.8265619806979103  1.0000
  O   O16       1.0  0.25583843954667884  0.6285824457796281  0.1734373621290359  1.0000
  O   O17       1.0  0.1466049824575038  0.3716596357590944  0.4059667745172462  1.0000
  O   O18       1.0  0.853394727989027  0.3716595409020583  0.5940334065394168  1.0000
  O   O19       1.0  0.6466037468841961  0.6283411141643427  0.09403329889835278  1.0000
  O   O20       1.0  0.3533958667870393  0.6283410304859205  0.9059668430245154  1.0000
  O   O21       1.0  0.6749357024777468  0.8403969772557148  0.5842480739131872  1.0000
  O   O22       1.0  0.32506540087192093  0.8403981622258955  0.4157528347387327  1.0000
  O   O23       1.0  0.1749307473849484  0.15960250131387002  0.9157529372342239  1.0000
  O   O24       1.0  0.8250659037555438  0.15960142533342042  0.0842480752116614  1.0000
