data_image0
_chemical_formula_structural       Mg6H60C60N12O18
_chemical_formula_sum              "Mg6 H60 C60 N12 O18"
_cell_length_a       6.75286102425257
_cell_length_b       34.98231572734326
_cell_length_c       34.98609530102043
_cell_angle_alpha    119.60371090095649
_cell_angle_beta     93.70003757963975
_cell_angle_gamma    93.65347136517825

_space_group_name_H-M_alt    "P 1"
_space_group_IT_number       1

loop_
  _space_group_symop_operation_xyz
  'x, y, z'

loop_
  _atom_site_type_symbol
  _atom_site_label
  _atom_site_symmetry_multiplicity
  _atom_site_fract_x
  _atom_site_fract_y
  _atom_site_fract_z
  _atom_site_occupancy
  Mg  Mg1       1.0  0.4840712946206339  0.6939660285913548  0.32802577609204797  1.0000
  Mg  Mg2       1.0  0.7902336799353479  0.6341461417769877  0.30595554480974146  1.0000
  Mg  Mg3       1.0  0.15602724338030796  0.6718800009508429  0.3657597615648458  1.0000
  Mg  Mg4       1.0  0.32098225294755184  0.3065499429587177  0.6725862541338544  1.0000
  Mg  Mg5       1.0  0.014259788944848141  0.365986024816074  0.6934509389275264  1.0000
  Mg  Mg6       1.0  0.6481818975228464  0.32744710609954814  0.634067364321723  1.0000
  H   H1        1.0  0.7319986362895323  0.6204307187834813  0.1980181625986078  1.0000
  H   H2        1.0  0.11218550120051425  0.5776689237468701  0.37961083077916424  1.0000
  H   H3        1.0  0.5337418632551022  0.8019186045230312  0.42233412039668394  1.0000
  H   H4        1.0  0.7125000694830562  0.5895766858711582  0.12177752072555871  1.0000
  H   H5        1.0  0.12302013924087168  0.5323388265000943  0.4105542213572593  1.0000
  H   H6        1.0  0.5902223416534086  0.8780531903368499  0.4677332448987105  1.0000
  H   H7        1.0  0.58099442842083  0.5780642047934705  0.05748724626395338  1.0000
  H   H8        1.0  0.002391496029297045  0.4795295135359936  0.4218952960853316  1.0000
  H   H9        1.0  0.5231300774908832  0.9423096497286423  0.5205934404592372  1.0000
  H   H10       1.0  0.35237762667106415  0.5922121318896457  0.08147560931064401  1.0000
  H   H11       1.0  0.7597050930246426  0.48959917052280827  0.40799398245860646  1.0000
  H   H12       1.0  0.2702517485232222  0.9185093275811979  0.5106346205835451  1.0000
  H   H13       1.0  0.12255336422290966  0.5494018649444147  0.02769552926431392  1.0000
  H   H14       1.0  0.5736891647244208  0.4785035891359826  0.45074662428068296  1.0000
  H   H15       1.0  0.09587467996806968  0.9724661708907193  0.5217628249309956  1.0000
  H   H16       1.0  0.10825227420232865  0.49104818790775084  0.001994991480138835  1.0000
  H   H17       1.0  0.617474333920008  0.5111107635189641  0.5091009771643373  1.0000
  H   H18       1.0  0.10728603340026426  0.9981989869557282  0.48915828287346863  1.0000
  H   H19       1.0  0.38737070723543354  0.5504613166151487  0.9816539977277049  1.0000
  H   H20       1.0  0.8369710138640941  0.43126035806829327  0.4495894900449643  1.0000
  H   H21       1.0  0.40711878183493866  0.0183364841713924  0.5688264971188771  1.0000
  H   H22       1.0  0.18229159194531527  0.5126356339308344  0.9460056040661443  1.0000
  H   H23       1.0  0.6697467442976476  0.43353155030234813  0.48745569908393815  1.0000
  H   H24       1.0  0.23797587547459642  0.054096775134198104  0.5667287418725594  1.0000
  H   H25       1.0  0.6862521940374438  0.5179450877066359  0.9981029564207163  1.0000
  H   H26       1.0  0.16853726879274702  0.48007371973600516  0.48200955771382353  1.0000
  H   H27       1.0  0.6893663929936481  0.0017664241809783002  0.5199218765727237  1.0000
  H   H28       1.0  0.6744330927427882  0.4595985156864161  0.972369160218783  1.0000
  H   H29       1.0  0.21517216321834107  0.5126608519859771  0.5403487465343205  1.0000
  H   H30       1.0  0.7035468662990497  0.027430574760842295  0.4872688564046471  1.0000
  H   H31       1.0  0.6127549206520727  0.4957489394121808  0.053870912880668774  1.0000
  H   H32       1.0  0.1177404397663439  0.5580825907147898  0.5042885994574535  1.0000
  H   H33       1.0  0.5598567468325372  0.9459674177744333  0.4419734554709225  1.0000
  H   H34       1.0  0.408003768732101  0.458028064016588  0.01796599296266525  1.0000
  H   H35       1.0  0.9508696983223147  0.5600156157266837  0.5420935682020557  1.0000
  H   H36       1.0  0.39169507808109233  0.9819906357069427  0.4400644799554599  1.0000
  H   H37       1.0  0.21257476323090438  0.4310806936933389  0.9431545547161096  1.0000
  H   H38       1.0  0.7823037537578375  0.5121489010373991  0.5690624078089359  1.0000
  H   H39       1.0  0.2712767527424874  0.056722036396543295  0.4877972905122122  1.0000
  H   H40       1.0  0.44211037843616213  0.4162212734902583  0.9199137236790947  1.0000
  H   H41       1.0  0.026596626578495507  0.5035928869646682  0.5837596765252897  1.0000
  H   H42       1.0  0.5239985813395408  0.07995259648899379  0.49628518030707625  1.0000
  H   H43       1.0  0.085150497706863  0.41800324081660994  0.8780488763892651  1.0000
  H   H44       1.0  0.6677879307673251  0.4601203389154094  0.5820784830756338  1.0000
  H   H45       1.0  0.20827520572571254  0.12181532947363392  0.5397588306691006  1.0000
  H   H46       1.0  0.07008527855855112  0.3839485853942222  0.8018445359047278  1.0000
  H   H47       1.0  0.6861896676757483  0.41792588409553844  0.6160043533821878  1.0000
  H   H48       1.0  0.26872356770227424  0.19804058058370091  0.5819228045937523  1.0000
  H   H49       1.0  0.79156473067966  0.4328270124305007  0.8193226828855985  1.0000
  H   H50       1.0  0.35851577389101413  0.3861104105423506  0.5669818103930311  1.0000
  H   H51       1.0  0.9727226093427391  0.18077313996562344  0.6137972772172093  1.0000
  H   H52       1.0  0.6132512540790248  0.45723063644890527  0.8866191701282207  1.0000
  H   H53       1.0  0.15635623209997368  0.42915760932168473  0.5426577613213228  1.0000
  H   H54       1.0  0.727690139358998  0.11342928312007669  0.5708229188433691  1.0000
  H   H55       1.0  0.18677817199664315  0.5490084552332776  0.11311788178527862  1.0000
  H   H56       1.0  0.6380930511389523  0.5645604002558643  0.4511494695933111  1.0000
  H   H57       1.0  0.07293469178612379  0.8868048430665072  0.4358169189625942  1.0000
  H   H58       1.0  0.011602419755767838  0.5705671371451685  0.18045706650097068  1.0000
  H   H59       1.0  0.44136834813968345  0.6102785962767572  0.4294515669062451  1.0000
  H   H60       1.0  0.8305021910220634  0.8194276722173655  0.39003355593339983  1.0000
  C   C1        1.0  0.47690149209953614  0.622212238550212  0.23180560312947326  1.0000
  C   C2        1.0  0.8550694691759093  0.6096754517902597  0.377698278348298  1.0000
  C   C3        1.0  0.24488997966933831  0.7681044602736051  0.39026540117119185  1.0000
  C   C4        1.0  0.5731848836179125  0.6092489590851783  0.19356111275693175  1.0000
  C   C5        1.0  0.9644239673495892  0.5844327258179193  0.39073508274574226  1.0000
  C   C6        1.0  0.37932839998003226  0.8063449473420048  0.41558079320321184  1.0000
  C   C7        1.0  0.47019051726788785  0.5845314556753182  0.15104250181705248  1.0000
  C   C8        1.0  0.8858721899471221  0.566707547456183  0.41549289854517496  1.0000
  C   C9        1.0  0.31863653912726886  0.8488642841542386  0.4334114335104788  1.0000
  C   C10       1.0  0.4670926694955214  0.569019257427783  0.0739875406052023  1.0000
  C   C11       1.0  0.8978714992771446  0.5051805205918072  0.4310906866594736  1.0000
  C   C12       1.0  0.39282655763602775  0.9259279839162958  0.4949957018498597  1.0000
  C   C13       1.0  0.2113006166356756  0.5211552069029182  0.01258783237513959  1.0000
  C   C14       1.0  0.6905636463801843  0.49161667235878065  0.47899184468317924  1.0000
  C   C15       1.0  0.19974195668060465  0.9875320942531404  0.5086174604079405  1.0000
  C   C16       1.0  0.30027819231076347  0.518734490055877  0.9722038190636867  1.0000
  C   C17       1.0  0.7817651989960626  0.4535796285227461  0.48133949295485934  1.0000
  C   C18       1.0  0.329492273843421  0.0278403493909707  0.5465851334930109  1.0000
  C   C19       1.0  0.584541766956612  0.48764346929368685  0.9874368770725898  1.0000
  C   C20       1.0  0.09718786640786459  0.4997397242985643  0.5123366806043352  1.0000
  C   C21       1.0  0.5984242135390404  0.012437822424928397  0.5002599000995858  1.0000
  C   C22       1.0  0.49519623556546594  0.48980518992934213  0.027658925486342485  1.0000
  C   C23       1.0  0.006020453342699806  0.537879670413183  0.5102672220106259  1.0000
  C   C24       1.0  0.4686926771549766  0.9722612063204535  0.46219082819585844  1.0000
  C   C25       1.0  0.32808769820973555  0.43942987936873834  0.9265142069297314  1.0000
  C   C26       1.0  0.8892486378968557  0.4870633740450003  0.5605999214792022  1.0000
  C   C27       1.0  0.4032118974901309  0.07339462101231932  0.5128626699385705  1.0000
  C   C28       1.0  0.3302982033684502  0.4211436320891693  0.8488045577316612  1.0000
  C   C29       1.0  0.9093575106707235  0.4275469152952667  0.5787821000747402  1.0000
  C   C30       1.0  0.48234639393009365  0.151159337703092  0.5723152170812895  1.0000
  C   C31       1.0  0.22912520612332812  0.39493285147719354  0.8062943769354193  1.0000
  C   C32       1.0  0.8341717681987647  0.4112830710293878  0.6050013258526336  1.0000
  C   C33       1.0  0.42332163710886317  0.19365324704202894  0.588581387381801  1.0000
  C   C34       1.0  0.3273472690842  0.3802159673714911  0.7681187495887657  1.0000
  C   C35       1.0  0.9469398740899494  0.3877941135953478  0.6197277171400658  1.0000
  C   C36       1.0  0.5593949821262996  0.2318709360889031  0.6121622774237283  1.0000
  C   C37       1.0  0.5369010874044451  0.39407071486269274  0.7731759362569124  1.0000
  C   C38       1.0  0.14253935893928124  0.37886111406699285  0.6057970569326728  1.0000
  C   C39       1.0  0.7639506398062395  0.22687115974112257  0.6210669825444768  1.0000
  C   C40       1.0  0.6336644539527756  0.42172870759400644  0.8162937513927561  1.0000
  C   C41       1.0  0.2117116376570678  0.39423572426012754  0.5780848927214137  1.0000
  C   C42       1.0  0.8178730692715064  0.1837723598773167  0.605660059299993  1.0000
  C   C43       1.0  0.536428497838024  0.43509254062863073  0.8537387857441631  1.0000
  C   C44       1.0  0.10139337532892514  0.4183928538637431  0.5647619951658883  1.0000
  C   C45       1.0  0.6835179662941472  0.14629709897759113  0.5815147509388937  1.0000
  C   C46       1.0  0.6554329330485518  0.3807408425508783  0.7358441069636398  1.0000
  C   C47       1.0  0.27446944893161174  0.35491819611272046  0.6191940927203491  1.0000
  C   C48       1.0  0.9197311823530258  0.2642159397753119  0.6450244110336315  1.0000
  C   C49       1.0  0.2646438555128299  0.5701356187967547  0.14610044514650877  1.0000
  C   C50       1.0  0.6947295558442762  0.5762678700567319  0.42990796948911497  1.0000
  C   C51       1.0  0.11799217096956494  0.8538230447511452  0.4239346410569314  1.0000
  C   C52       1.0  0.16930861258591542  0.5818235746606675  0.1835327695884744  1.0000
  C   C53       1.0  0.5877353579591615  0.6019753304520921  0.4181647860797854  1.0000
  C   C54       1.0  0.9852788448422916  0.8163897584500931  0.39819590995097826  1.0000
  C   C55       1.0  0.26752619370007863  0.6081563569438375  0.22669536395105913  1.0000
  C   C56       1.0  0.6597357916007315  0.6186723645516851  0.3917543453511884  1.0000
  C   C57       1.0  0.04056004953530142  0.773228924235454  0.38134050374650763  1.0000
  C   C58       1.0  0.14969143270818833  0.6203525847728886  0.2639932509142543  1.0000
  C   C59       1.0  0.5296213460607291  0.6437492156690822  0.37954120063709246  1.0000
  C   C60       1.0  0.8855123937513981  0.7359490571749561  0.35626086221584813  1.0000
  N   N1        1.0  0.5704547090991029  0.5747300372323494  0.1143777240401605  1.0000
  N   N2        1.0  0.9956932479232993  0.539835329969229  0.42536543732870075  1.0000
  N   N3        1.0  0.45556809896805844  0.8854948586456219  0.460316199488702  1.0000
  N   N4        1.0  0.36230034486894885  0.5246963962436126  0.04653230268172604  1.0000
  N   N5        1.0  0.837966709169912  0.5220191227043998  0.4754630276435493  1.0000
  N   N6        1.0  0.31637320415354964  0.9534944492512023  0.47816402495767835  1.0000
  N   N7        1.0  0.4331612157700135  0.48380029033369  0.9533976566559093  1.0000
  N   N8        1.0  0.9496312162697224  0.4695929412539643  0.5162034314830566  1.0000
  N   N9        1.0  0.4812594549264092  0.04656081426782781  0.5304323481626625  1.0000
  N   N10       1.0  0.22747156040089325  0.43273674549484303  0.8854714486458594  1.0000
  N   N11       1.0  0.7951536093504998  0.4527067817132321  0.5672539431751604  1.0000
  N   N12       1.0  0.3432461416810284  0.11445467808297141  0.5471452692053235  1.0000
  O   O1        1.0  0.9688026900952096  0.6037928955023233  0.2581153008251535  1.0000
  O   O2        1.0  0.3651956988927056  0.6544230332143927  0.3960968153713086  1.0000
  O   O3        1.0  0.7103523906234841  0.7418526611547306  0.3456425445994357  1.0000
  O   O4        1.0  0.23135134178485128  0.6494494365199088  0.3034339548711247  1.0000
  O   O5        1.0  0.5820758578077374  0.6540456298184623  0.3504159961708028  1.0000
  O   O6        1.0  0.9277913421863391  0.6964994866930142  0.3459014576382631  1.0000
  O   O7        1.0  0.5840345445734985  0.6477547600025988  0.27132235146481093  1.0000
  O   O8        1.0  0.9365303594357858  0.6235913738895179  0.35211309740049074  1.0000
  O   O9        1.0  0.31255854253230814  0.7285793251947296  0.37626175737118234  1.0000
  O   O10       1.0  0.8362953060109819  0.39717968342445426  0.7413797612686751  1.0000
  O   O11       1.0  0.4389205352499064  0.34397281570998234  0.6027433691027826  1.0000
  O   O12       1.0  0.09514991188423497  0.2587044062951805  0.6559475232316248  1.0000
  O   O13       1.0  0.5741658641158551  0.35085639836438537  0.6966591267092641  1.0000
  O   O14       1.0  0.22334238514572052  0.3457593512995771  0.6491847101443896  1.0000
  O   O15       1.0  0.8775008938007999  0.3033775975134887  0.6542361451775562  1.0000
  O   O16       1.0  0.22125188499813225  0.3533677925422013  0.7287595200588586  1.0000
  O   O17       1.0  0.8677034196726366  0.3753822597775809  0.6466461208481392  1.0000
  O   O18       1.0  0.49245804221761363  0.27122781772477816  0.624680063772587  1.0000
