data_image0
_chemical_formula_structural       Cu4H24C24N12Cl4O16
_chemical_formula_sum              "Cu4 H24 C24 N12 Cl4 O16"
_cell_length_a       7.614302481527307
_cell_length_b       9.19338828091797
_cell_length_c       13.42920114423327
_cell_angle_alpha    89.99939122299423
_cell_angle_beta     90.00037266093885
_cell_angle_gamma    97.30517326702105

_space_group_name_H-M_alt    "P 1"
_space_group_IT_number       1

loop_
  _space_group_symop_operation_xyz
  'x, y, z'

loop_
  _atom_site_type_symbol
  _atom_site_label
  _atom_site_symmetry_multiplicity
  _atom_site_fract_x
  _atom_site_fract_y
  _atom_site_fract_z
  _atom_site_occupancy
  Cu  Cu1       1.0  0.29134144454954486  0.6264730536129053  0.819454287665458  1.0000
  Cu  Cu2       1.0  0.20865660163766367  0.8735195947888601  0.319458487696906  1.0000
  Cu  Cu3       1.0  0.7086645511625491  0.3735319765607913  0.18054604764125767  1.0000
  Cu  Cu4       1.0  0.7913427701769183  0.12647667288521094  0.6805433369215024  1.0000
  H   H1        1.0  0.06704446071689323  0.6647325015012129  0.6439146261351567  1.0000
  H   H2        1.0  0.4329541292773842  0.835268167386545  0.1439154638296003  1.0000
  H   H3        1.0  0.9329613634538138  0.33527143204675275  0.35608421988339245  1.0000
  H   H4        1.0  0.5670473537169727  0.16472480512494064  0.8560796589913551  1.0000
  H   H5        1.0  0.28347930541212213  0.931223765318343  0.8762994298945088  1.0000
  H   H6        1.0  0.21651635803389988  0.5687746483794812  0.3762991845052923  1.0000
  H   H7        1.0  0.7165191559192082  0.06878347404384043  0.123699416098404  1.0000
  H   H8        1.0  0.7834838120636719  0.4312183267666257  0.6236981722510252  1.0000
  H   H9        1.0  0.8796647049537756  0.8575597834841987  0.595794163524431  1.0000
  H   H10       1.0  0.620333146960995  0.6424399129805  0.09579525947049919  1.0000
  H   H11       1.0  0.12033500992632185  0.142438677468256  0.4042069164406641  1.0000
  H   H12       1.0  0.3796679929885515  0.3575508662202722  0.9042050758793607  1.0000
  H   H13       1.0  0.08630846864259216  0.11762251451089877  0.8330723653132209  1.0000
  H   H14       1.0  0.4136855424026253  0.3823735601424119  0.3330757663305945  1.0000
  H   H15       1.0  0.9136743499930022  0.8823770775167363  0.1669316932003539  1.0000
  H   H16       1.0  0.5863161121641697  0.6176205089463098  0.6669275475919179  1.0000
  H   H17       1.0  0.20683264917424543  0.7217457833596868  0.0222410617649516  1.0000
  H   H18       1.0  0.29318153798995894  0.7782544182963352  0.5222454395119911  1.0000
  H   H19       1.0  0.7931656406329568  0.2782603593498365  0.977760018169441  1.0000
  H   H20       1.0  0.7068278818573506  0.2217473139885656  0.47775861904274564  1.0000
  H   H21       1.0  0.9800943470848015  0.6368984717388885  0.15368695077232528  1.0000
  H   H22       1.0  0.5199149470454147  0.8631113348410583  0.6536919360271226  1.0000
  H   H23       1.0  0.01990411424997523  0.36310876761791644  0.8463126398665182  1.0000
  H   H24       1.0  0.4800854539829659  0.13689151264123472  0.3463113778609994  1.0000
  C   C1        1.0  0.07274691361977403  0.766921092891657  0.6855332689560072  1.0000
  C   C2        1.0  0.4272494362439687  0.7330789791120085  0.18553334327003773  1.0000
  C   C3        1.0  0.9272628492757917  0.2330828326985639  0.3144663217157558  1.0000
  C   C4        1.0  0.5727473097390857  0.2669172938905717  0.8144647581138572  1.0000
  C   C5        1.0  0.19218680886790204  0.9138403567998595  0.8140067145576921  1.0000
  C   C6        1.0  0.3078137004714777  0.5861600442488639  0.3140081675681187  1.0000
  C   C7        1.0  0.8078152481158799  0.0861646813369674  0.18599213144988622  1.0000
  C   C8        1.0  0.6921830455219297  0.41383622873755155  0.6859921677535753  1.0000
  C   C9        1.0  0.9669467563329663  0.8730567855135336  0.6600676365502237  1.0000
  C   C10       1.0  0.5330495800001316  0.6269452761791855  0.1600677797123495  1.0000
  C   C11       1.0  0.033054614523230406  0.1269438660611328  0.3399334434099118  1.0000
  C   C12       1.0  0.46694927720064794  0.37304770160154294  0.8399318109793442  1.0000
  C   C13       1.0  0.08301084025442411  0.017794178139276102  0.7893188184076222  1.0000
  C   C14       1.0  0.41698636095085834  0.4822003284024988  0.2893177786897567  1.0000
  C   C15       1.0  0.9169819670313758  0.9822021027779545  0.2106844954905185  1.0000
  C   C16       1.0  0.5830152936021307  0.5177937407077736  0.7106825566490258  1.0000
  C   C17       1.0  0.11470774169487193  0.6220120767413918  0.012629366946072198  1.0000
  C   C18       1.0  0.3853011047588026  0.877988274605535  0.5126318656517483  1.0000
  C   C19       1.0  0.8852895782603485  0.3779962619134737  0.9873687343947849  1.0000
  C   C20       1.0  0.6147074574022966  0.12200797451841085  0.4873692143377184  1.0000
  C   C21       1.0  0.9882985162372864  0.5766909611617097  0.0842422509508154  1.0000
  C   C22       1.0  0.5117036819473313  0.9233121844100229  0.5842430427117122  1.0000
  C   C23       1.0  0.011701086463247629  0.42331517891858556  0.9157558504022845  1.0000
  C   C24       1.0  0.48830294053396994  0.07668845656688461  0.4157572926122057  1.0000
  N   N1        1.0  0.18704212651753252  0.7862259353851119  0.7630867933494798  1.0000
  N   N2        1.0  0.3129577393992662  0.7137741058075877  0.263087332551649  1.0000
  N   N3        1.0  0.8129656966947892  0.21378238206345665  0.2369113080107965  1.0000
  N   N4        1.0  0.6870437436123424  0.2862188666769614  0.7369115134989599  1.0000
  N   N5        1.0  0.9689869223065062  0.9986655998741517  0.7121812268010004  1.0000
  N   N6        1.0  0.5310110383561694  0.5013346084685538  0.2121837698455451  1.0000
  N   N7        1.0  0.031009196921147012  0.0013350623036672003  0.2878198531494292  1.0000
  N   N8        1.0  0.46899061620027305  0.49865946063633265  0.7878173101391752  1.0000
  N   N9        1.0  0.12808017375647304  0.5454902397300716  0.9278754753613611  1.0000
  N   N10       1.0  0.37191893653354685  0.9545096156771752  0.4278744721043992  1.0000
  N   N11       1.0  0.8719168031332318  0.45451590564640304  0.0721233706328164  1.0000
  N   N12       1.0  0.628087514420173  0.045489928652465005  0.5721273525150679  1.0000
  Cl  Cl1       1.0  0.6608691039898247  0.8359609168452382  0.9050430611897582  1.0000
  Cl  Cl2       1.0  0.8391309870191821  0.6640386942125575  0.4050440602904287  1.0000
  Cl  Cl3       1.0  0.33913129701785055  0.16404193066937722  0.0949557848227798  1.0000
  Cl  Cl4       1.0  0.16086461759812215  0.3359586780665326  0.5949555303792167  1.0000
  O   O1        1.0  0.495647051773169  0.7599343140309076  0.9481781397329172  1.0000
  O   O2        1.0  0.00435435789773921  0.7400619523667518  0.4481818182900668  1.0000
  O   O3        1.0  0.5043546621416439  0.24006853083292168  0.0518207062820437  1.0000
  O   O4        1.0  0.9956407321126693  0.259932130008231  0.5518170277447183  1.0000
  O   O5        1.0  0.7798820812617394  0.7292026719769141  0.8808657617032479  1.0000
  O   O6        1.0  0.7201177856863412  0.7707972889174571  0.3808655422521596  1.0000
  O   O7        1.0  0.22011963265652676  0.27080017288152913  0.1191338289576365  1.0000
  O   O8        1.0  0.2798753646615212  0.229201185283543  0.6191362823467301  1.0000
  O   O9        1.0  0.6147495166362377  0.9121282535941191  0.8143932254032649  1.0000
  O   O10       1.0  0.885249734301276  0.5878726691057353  0.31439346174892785  1.0000
  O   O11       1.0  0.38525054130592923  0.08787240064211232  0.1856063652625792  1.0000
  O   O12       1.0  0.11474375909484996  0.41212799840059244  0.685603894966988  1.0000
  O   O13       1.0  0.7438187670986384  0.9421969655253835  0.9767231877107392  1.0000
  O   O14       1.0  0.7561788477602606  0.5577983237730779  0.4767231685822395  1.0000
  O   O15       1.0  0.25618294681617476  0.0578058793384457  0.023275658304221698  1.0000
  O   O16       1.0  0.24381475780507608  0.4421946646215817  0.5232749328078796  1.0000
