data_image0
_chemical_formula_structural       Dy4Cu2H28C20S2N8O36
_chemical_formula_sum              "Dy4 Cu2 H28 C20 S2 N8 O36"
_cell_length_a       6.996206188944387
_cell_length_b       10.221588274780709
_cell_length_c       15.413299375293965
_cell_angle_alpha    80.87925661435256
_cell_angle_beta     80.20495479070185
_cell_angle_gamma    77.8082859432834

_space_group_name_H-M_alt    "P 1"
_space_group_IT_number       1

loop_
  _space_group_symop_operation_xyz
  'x, y, z'

loop_
  _atom_site_type_symbol
  _atom_site_label
  _atom_site_symmetry_multiplicity
  _atom_site_fract_x
  _atom_site_fract_y
  _atom_site_fract_z
  _atom_site_occupancy
  Dy  Dy1       1.0  0.35225734977925777  0.21433806462028573  0.2646285980960172  1.0000
  Dy  Dy2       1.0  0.6477353932840513  0.7856617416333906  0.735371456405133  1.0000
  Dy  Dy3       1.0  0.7408310194460198  0.8107471017696284  0.3706017823808664  1.0000
  Dy  Dy4       1.0  0.25916925578887634  0.18925173482475804  0.6293977718822461  1.0000
  Cu  Cu1       1.0  0.38983879427987483  0.3677017283595491  0.9698147074060444  1.0000
  Cu  Cu2       1.0  0.6101623746790068  0.6322991330515111  0.03018650785504917  1.0000
  H   H1        1.0  0.9508123722667888  0.7176279401977511  0.14073678509149093  1.0000
  H   H2        1.0  0.04919340727035863  0.2823769898291815  0.859262333848271  1.0000
  H   H3        1.0  0.8534912709286785  0.9248555899704062  0.007515240363332512  1.0000
  H   H4        1.0  0.1465131313371231  0.07514427612333921  0.9924890653512008  1.0000
  H   H5        1.0  0.696901085538265  0.30997212866718366  0.2967480226926682  1.0000
  H   H6        1.0  0.3030924962468262  0.6900297048166665  0.7032498041340745  1.0000
  H   H7        1.0  0.6708940056427792  0.38033930119814136  0.19508507578582623  1.0000
  H   H8        1.0  0.32909755506567967  0.6196645421423668  0.8049133492355479  1.0000
  H   H9        1.0  0.036453514323653714  0.20686212407463964  0.15499030621401028  1.0000
  H   H10       1.0  0.9635435642724559  0.7931377062280662  0.8450087500439095  1.0000
  H   H11       1.0  0.1442534805586391  0.05880403539215713  0.1877891720370073  1.0000
  H   H12       1.0  0.8557426951464534  0.9411937704961209  0.8122075751108684  1.0000
  H   H13       1.0  0.008568495329655005  0.1423756563527334  0.39096047413359253  1.0000
  H   H14       1.0  0.9914329255919585  0.8576191447638168  0.6090381171610488  1.0000
  H   H15       1.0  0.1990780078837062  0.06961344120357892  0.4372044993099706  1.0000
  H   H16       1.0  0.8009231311997451  0.9303823685813131  0.5627946567828204  1.0000
  H   H17       1.0  0.514839373758839  0.7008609791772502  0.2518742093692126  1.0000
  H   H18       1.0  0.4851658098522264  0.2991358637272442  0.7481238651664414  1.0000
  H   H19       1.0  0.3907109570207723  0.7263402596921367  0.3459210898051452  1.0000
  H   H20       1.0  0.6092898818904544  0.2736565595655875  0.6540773348616681  1.0000
  H   H21       1.0  0.13078078651889768  0.8557973948313135  0.28026359540845647  1.0000
  H   H22       1.0  0.8692235125352141  0.14419742285426204  0.71973346624128  1.0000
  H   H23       1.0  0.09397260620148984  0.936464979475737  0.3625699838153764  1.0000
  H   H24       1.0  0.9060334504251627  0.063528836217003  0.637428340662005  1.0000
  H   H25       1.0  0.854181147973925  0.6450702432740414  0.5569770462409736  1.0000
  H   H26       1.0  0.14581712451840184  0.35493060237250523  0.4430244024408907  1.0000
  H   H27       1.0  0.9472195247132759  0.600663738472619  0.4590963495249198  1.0000
  H   H28       1.0  0.05277960483490316  0.3993391335996038  0.540904167706671  1.0000
  C   C1        1.0  0.06699234749195432  0.5055964827436057  0.2955859615641856  1.0000
  C   C2        1.0  0.9330073640666184  0.49440437118745006  0.7044147222952263  1.0000
  C   C3        1.0  0.11354935780628488  0.5197580449498318  0.19820747876716638  1.0000
  C   C4        1.0  0.8864497693675659  0.4802397742894585  0.8017929236323127  1.0000
  C   C5        1.0  0.051042348686458155  0.622817472317408  0.13201737257801935  1.0000
  C   C6        1.0  0.9489579289227736  0.3771864171099041  0.8679822965172121  1.0000
  C   C7        1.0  0.15001337107946713  0.5748052706652091  0.05381581361034188  1.0000
  C   C8        1.0  0.8499828528351185  0.42519758604474606  0.9461842889299633  1.0000
  C   C9        1.0  0.15102740387932562  0.6237781052886007  0.959171196806359  1.0000
  C   C10       1.0  0.8489737559125247  0.3762227565247117  0.04082937034267077  1.0000
  C   C11       1.0  0.6478938917110498  0.16811800548999406  0.8809048988220881  1.0000
  C   C12       1.0  0.35210727724783203  0.831882855921066  0.11909631643899839  1.0000
  C   C13       1.0  0.6485091539369207  0.1210548639339066  0.9761920574769718  1.0000
  C   C14       1.0  0.3514986833449996  0.8789480546273651  0.023809055716412814  1.0000
  C   C15       1.0  0.7443779866675725  0.010618046907460205  0.028630564090299508  1.0000
  C   C16       1.0  0.25562812733560486  0.9893808192047119  0.9713717638915754  1.0000
  C   C17       1.0  0.6624831204630439  0.0359578290812621  0.115640716412365  1.0000
  C   C18       1.0  0.33752068145830066  0.9640440559581553  0.8843621264502275  1.0000
  C   C19       1.0  0.6893177541541959  0.961034640519216  0.2027938004549839  1.0000
  C   C20       1.0  0.31068082767738764  0.0389651952522456  0.7972090277649214  1.0000
  S   S1        1.0  0.6382076204861846  0.14310982263351243  0.44835144296281726  1.0000
  S   S2        1.0  0.3617897491151183  0.8568889985986132  0.5516476966090167  1.0000
  N   N1        1.0  0.2421597749672628  0.4158927594007267  0.1610835226669849  1.0000
  N   N2        1.0  0.7578318108679625  0.5841060299001058  0.8389167318584609  1.0000
  N   N3        1.0  0.26287699249155594  0.4512929448049263  0.07385721203163341  1.0000
  N   N4        1.0  0.7371140113332687  0.5487078626370803  0.9261428758659848  1.0000
  N   N5        1.0  0.5210011574131599  0.20347921956445703  0.0305397197917898  1.0000
  N   N6        1.0  0.4790066982028235  0.7965236981923101  0.9694626896257218  1.0000
  N   N7        1.0  0.5274238891255864  0.15402151778254594  0.11487098716617078  1.0000
  N   N8        1.0  0.47257991279575845  0.8459803672568643  0.8851318556964145  1.0000
  O   O1        1.0  0.9587806130410783  0.5999514659674718  0.33501030787741115  1.0000
  O   O2        1.0  0.04122403676908699  0.400052445899867  0.6649909554228443  1.0000
  O   O3        1.0  0.14592219161399098  0.39134500763051966  0.33626771843944425  1.0000
  O   O4        1.0  0.8540705422822796  0.608654799025402  0.6637316879496353  1.0000
  O   O5        1.0  0.048965823100054734  0.7350126814015496  0.9344700586579648  1.0000
  O   O6        1.0  0.9510376236468615  0.26499021552419333  0.06552816410626858  1.0000
  O   O7        1.0  0.2633155973800144  0.5418367173848182  0.9055580508137026  1.0000
  O   O8        1.0  0.7366861376295262  0.4581671795225049  0.09444214968320352  1.0000
  O   O9        1.0  0.5255491941802503  0.28068357523491744  0.8617573098138323  1.0000
  O   O10       1.0  0.47444910581317146  0.7193172692048793  0.13824608320422271  1.0000
  O   O11       1.0  0.7570867149938678  0.10342412823433733  0.822302097913841  1.0000
  O   O12       1.0  0.24290488917542058  0.8965746602619976  0.17769945283573207  1.0000
  O   O13       1.0  0.8168406713879435  0.854414651964163  0.21362459313458973  1.0000
  O   O14       1.0  0.1831590676717241  0.1455862007601425  0.7863780350610127  1.0000
  O   O15       1.0  0.5756222326447827  0.006123721073159101  0.27195860532887645  1.0000
  O   O16       1.0  0.4243734435532077  0.9938760993360418  0.7280438081997501  1.0000
  O   O17       1.0  0.6113187635696206  0.3285739974556067  0.24992686957290286  1.0000
  O   O18       1.0  0.3886748182154706  0.6714278360282436  0.7500709572538398  1.0000
  O   O19       1.0  0.10583740789552819  0.15180317995848472  0.20479446285030886  1.0000
  O   O20       1.0  0.8941616826101891  0.8481946408898084  0.7952033471009159  1.0000
  O   O21       1.0  0.1470573740422481  0.08816796369810481  0.3798524545143138  1.0000
  O   O22       1.0  0.8529431921978415  0.9118298638257014  0.6201471830627128  1.0000
  O   O23       1.0  0.4646099937663735  0.17685566113421916  0.4007242414340126  1.0000
  O   O24       1.0  0.5353888057341506  0.8231431687846611  0.5992734852032982  1.0000
  O   O25       1.0  0.5713053939168162  0.167567398833981  0.5424424288561909  1.0000
  O   O26       1.0  0.42869195735042337  0.8324314232026427  0.4575554144915158  1.0000
  O   O27       1.0  0.7859167422009179  0.22663819628492382  0.40544581055345924  1.0000
  O   O28       1.0  0.2140835238669467  0.773360640711708  0.5945530955975897  1.0000
  O   O29       1.0  0.7314628631730284  0.9959236122156485  0.44778103202602176  1.0000
  O   O30       1.0  0.2685379849052296  0.004073206639823501  0.5522180407528552  1.0000
  O   O31       1.0  0.5255066647072155  0.7032986836367101  0.3152126668692929  1.0000
  O   O32       1.0  0.47449881907607505  0.29669714979495143  0.6847861390923314  1.0000
  O   O33       1.0  0.0656588332172703  0.8545134592382058  0.34318332819230324  1.0000
  O   O34       1.0  0.9343457751761051  0.1454803485722778  0.6568151129954671  1.0000
  O   O35       1.0  0.8521717120815496  0.6678039198494761  0.49116197864437783  1.0000
  O   O36       1.0  0.1478311893231066  0.3322009936084386  0.5088386699402889  1.0000
