data_image0
_chemical_formula_structural       Al4H30C48N2O24
_chemical_formula_sum              "Al4 H30 C48 N2 O24"
_cell_length_a       6.6362967941659745
_cell_length_b       16.928095912637097
_cell_length_c       19.699541716631018
_cell_angle_alpha    71.13388295126455
_cell_angle_beta     90.1493451649542
_cell_angle_gamma    90.07585516056919

_space_group_name_H-M_alt    "P 1"
_space_group_IT_number       1

loop_
  _space_group_symop_operation_xyz
  'x, y, z'

loop_
  _atom_site_type_symbol
  _atom_site_label
  _atom_site_symmetry_multiplicity
  _atom_site_fract_x
  _atom_site_fract_y
  _atom_site_fract_z
  _atom_site_occupancy
  Al  Al1       1.0  0.014389263956005002  0.49726579939713395  0.49832618704477477  1.0000
  Al  Al2       1.0  0.9854665645131391  0.9960446368382209  0.9996097085294978  1.0000
  Al  Al3       1.0  0.5155351837565617  0.5002754552762666  0.4989951872824747  1.0000
  Al  Al4       1.0  0.48499385932398553  0.0018310564316975709  0.9977762510127594  1.0000
  H   H1        1.0  0.9375299958732058  0.7490871307551076  0.6902825495213492  1.0000
  H   H2        1.0  0.05238440259262941  0.17397064227299103  0.25002637010224754  1.0000
  H   H3        1.0  0.9422185949624834  0.6636976738438777  0.6084990746502825  1.0000
  H   H4        1.0  0.05064242467937422  0.0962617420654084  0.16214343568597664  1.0000
  H   H5        1.0  0.5693324925660121  0.6099383624950646  0.6549742396936439  1.0000
  H   H6        1.0  0.4346941458240252  0.16729551706662701  0.10863477192497577  1.0000
  H   H7        1.0  0.5625277709264083  0.6886927415375014  0.7420468130097929  1.0000
  H   H8        1.0  0.43767861070811165  0.24955587164123472  0.19307056993915242  1.0000
  H   H9        1.0  0.5509911463227866  0.8197737390555633  0.750741067852502  1.0000
  H   H10       1.0  0.4400961830061761  0.2399478579407557  0.31228455890553164  1.0000
  H   H11       1.0  0.5443434107763069  0.8978300265902773  0.8377956003256343  1.0000
  H   H12       1.0  0.4492030424837168  0.32423088617483836  0.3945932199274651  1.0000
  H   H13       1.0  0.9286627273180842  0.8238866925588939  0.8891037634215166  1.0000
  H   H14       1.0  0.0674664740954611  0.38797381048607343  0.33895111042792087  1.0000
  H   H15       1.0  0.727994010537401  0.7321022559455415  0.33093785804603476  1.0000
  H   H16       1.0  0.27673515074219773  0.23231239929651076  0.8293600677481693  1.0000
  H   H17       1.0  0.5751082101081266  0.791564486420633  0.371696838776657  1.0000
  H   H18       1.0  0.42896307871250633  0.29171210892168636  0.8706880531312677  1.0000
  H   H19       1.0  0.7232659863518053  0.8502167993509175  0.21466770794862097  1.0000
  H   H20       1.0  0.283716890427506  0.35057517933616833  0.7129986630062746  1.0000
  H   H21       1.0  0.5759217737260302  0.9108502479721353  0.25512603719577953  1.0000
  H   H22       1.0  0.4304592252847855  0.41104945926497993  0.7540866847808018  1.0000
  H   H23       1.0  0.9379951882706052  0.7403025343586833  0.8064273224353115  1.0000
  H   H24       1.0  0.058209319457574814  0.30720324459820597  0.25395053506604626  1.0000
  H   H25       1.0  0.9827349706063162  0.7600246290590674  0.1592364423883481  1.0000
  H   H26       1.0  0.023413290885251594  0.25896560947720104  0.6601569211322341  1.0000
  H   H27       1.0  0.7686351813752453  0.6032618308449712  0.44676791778351815  1.0000
  H   H28       1.0  0.22613582706775054  0.10410644357272501  0.9482118069908766  1.0000
  H   H29       1.0  0.2705719033433098  0.4026802003897386  0.48626195429804403  1.0000
  H   H30       1.0  0.7264980133172898  0.9038514446688384  0.9843215904574406  1.0000
  C   C1        1.0  0.7584197702634514  0.38870978455723554  0.6121610410281163  1.0000
  C   C2        1.0  0.24669169033376195  0.8888649950386096  0.11190847030388802  1.0000
  C   C3        1.0  0.7665607732457927  0.4096450127047574  0.42296947501084503  1.0000
  C   C4        1.0  0.23155669584570404  0.9122215608863725  0.9211832095931741  1.0000
  C   C5        1.0  0.2686581098486585  0.6106284260398811  0.3833219520211983  1.0000
  C   C6        1.0  0.7328468533167297  0.11087119081469866  0.88360430436353  1.0000
  C   C7        1.0  0.2581201179453458  0.5834950479781824  0.575825647191415  1.0000
  C   C8        1.0  0.7435328281318192  0.08121155755758741  0.0773697470217698  1.0000
  C   C9        1.0  0.07518621576884502  0.7168131680400551  0.6843809089458119  1.0000
  C   C10       1.0  0.9177345096733022  0.17412301196797844  0.21811886243060027  1.0000
  C   C11       1.0  0.07733269564774052  0.6701787940334825  0.6378514036839745  1.0000
  C   C12       1.0  0.917161243012437  0.12986310534416393  0.16974916300384282  1.0000
  C   C13       1.0  0.2560471454482851  0.6321441615571073  0.6266305053054495  1.0000
  C   C14       1.0  0.7429589128764958  0.12747975459336658  0.1299832882244942  1.0000
  C   C15       1.0  0.4314678979654616  0.6403059619878418  0.6636254812784302  1.0000
  C   C16       1.0  0.5691857236909287  0.1695406483202007  0.13986398108512083  1.0000
  C   C17       1.0  0.4273466361242839  0.6853306794225634  0.7114784364395774  1.0000
  C   C18       1.0  0.5711988978738916  0.21454782086618712  0.18772076122849765  1.0000
  C   C19       1.0  0.24972024297145623  0.7249676607677815  0.7224103337057032  1.0000
  C   C20       1.0  0.7455915038964634  0.21796749939519344  0.22753616016895964  1.0000
  C   C21       1.0  0.4158385055409681  0.8183191491580287  0.7825258223939072  1.0000
  C   C22       1.0  0.5775553794037479  0.2731305966386657  0.3171818366654691  1.0000
  C   C23       1.0  0.41252567295810394  0.8626677013543896  0.8308846718354629  1.0000
  C   C24       1.0  0.5824388589871461  0.31951086280092517  0.3639413952010386  1.0000
  C   C25       1.0  0.23678703718564983  0.8647805971056217  0.8695595640469165  1.0000
  C   C26       1.0  0.7599779618610043  0.360078967567418  0.37288964924313467  1.0000
  C   C27       1.0  0.06506828282222442  0.8218776785100846  0.8590480618331354  1.0000
  C   C28       1.0  0.9317913610456117  0.35434761495093164  0.3334508781494492  1.0000
  C   C29       1.0  0.0702909973197023  0.7760807412014826  0.8119302651272805  1.0000
  C   C30       1.0  0.925831474684749  0.3086908817773378  0.2862299217889158  1.0000
  C   C31       1.0  0.24564528260152943  0.7734711090556561  0.7726412513390102  1.0000
  C   C32       1.0  0.7493035101779029  0.266783786912498  0.27748732436217693  1.0000
  C   C33       1.0  0.4060705735785533  0.8095010122284877  0.23174029643562477  1.0000
  C   C34       1.0  0.6003588997987137  0.3094943444806474  0.7314222511596711  1.0000
  C   C35       1.0  0.2535542668638726  0.8191632641127242  0.18106934171296982  1.0000
  C   C36       1.0  0.7534303058659191  0.31884830670426106  0.6812483928118097  1.0000
  C   C37       1.0  0.1047953421086092  0.7565998954946168  0.19716900277989416  1.0000
  C   C38       1.0  0.9012869294639857  0.2559488778046416  0.6977810357888643  1.0000
  C   C39       1.0  0.11632934564968173  0.6883056432196639  0.2596531948646188  1.0000
  C   C40       1.0  0.8883613294915733  0.1875643085265892  0.7602639288221696  1.0000
  C   C41       1.0  0.26748369531388516  0.678501501348606  0.3124823993319907  1.0000
  C   C42       1.0  0.736835265357854  0.1783589718600922  0.8126145071764199  1.0000
  C   C43       1.0  0.4097192448089402  0.7422271019647939  0.2958185468174008  1.0000
  C   C44       1.0  0.5954093720798426  0.2423095830525384  0.795454453638854  1.0000
  C   C45       1.0  0.5970194275041649  0.7735725707436671  0.32340660009455746  1.0000
  C   C46       1.0  0.4077806902123342  0.27375117324204723  0.8223154387861199  1.0000
  C   C47       1.0  0.5951098058760921  0.8484547876312335  0.2502617946183036  1.0000
  C   C48       1.0  0.411163143566128  0.3486558315419828  0.74915027430675  1.0000
  N   N1        1.0  0.970540350938954  0.6207224781130664  0.26543667089207185  1.0000
  N   N2        1.0  0.03228758541968801  0.11924964470313873  0.7665205102898298  1.0000
  O   O1        1.0  0.5996714087782138  0.42373980770759806  0.4492104176553369  1.0000
  O   O2        1.0  0.40005862645175233  0.9279213399410509  0.9456504107937745  1.0000
  O   O3        1.0  0.9268520933970096  0.4069037951778469  0.580287543626021  1.0000
  O   O4        1.0  0.07710834550538691  0.905490862593858  0.0803284642605959  1.0000
  O   O5        1.0  0.0890067210202403  0.5572726293699475  0.5610462567818147  1.0000
  O   O6        1.0  0.911312096472166  0.051621023086987294  0.0656306483643903  1.0000
  O   O7        1.0  0.9394408642407157  0.4338944875512781  0.43688845683497135  1.0000
  O   O8        1.0  0.0587353816414691  0.9327864644585945  0.9381814479439186  1.0000
  O   O9        1.0  0.0990090303833639  0.5895670874023935  0.4138608484328897  1.0000
  O   O10       1.0  0.9006337076147589  0.08992107350904627  0.9158318620283694  1.0000
  O   O11       1.0  0.5904789249252147  0.423739438831781  0.5901411968160701  1.0000
  O   O12       1.0  0.41280832890293345  0.9251835762046101  0.08941027023929139  1.0000
  O   O13       1.0  0.7663693008240033  0.5507983781055188  0.48590770536539907  1.0000
  O   O14       1.0  0.23260887057251262  0.05104130565820242  0.9865698388531995  1.0000
  O   O15       1.0  0.4408934338862239  0.5833212013193716  0.40832904080962606  1.0000
  O   O16       1.0  0.5593660776998846  0.08390407970029673  0.9071418015773246  1.0000
  O   O17       1.0  0.42767326002096695  0.5721390267235053  0.5502819841620762  1.0000
  O   O18       1.0  0.5770548561859457  0.07512882018151151  0.04701623834657201  1.0000
  O   O19       1.0  0.2663574347673503  0.4482959740585812  0.5059325525014203  1.0000
  O   O20       1.0  0.7325391853768509  0.9481162186666978  0.0055764568686314  1.0000
  O   O21       1.0  0.0378409079762392  0.5487435132051742  0.2830568786103598  1.0000
  O   O22       1.0  0.7921961706741669  0.640640982094098  0.24983087029884388  1.0000
  O   O23       1.0  0.21029071646517392  0.1385227670560383  0.7497569755953323  1.0000
  O   O24       1.0  0.964030570654245  0.04731267525905024  0.7858081430560234  1.0000
