data_image0
_chemical_formula_structural       Cd8H104C144N24O56
_chemical_formula_sum              "Cd8 H104 C144 N24 O56"
_cell_length_a       12.370859216045588
_cell_length_b       15.522208213063696
_cell_length_c       24.581292137049147
_cell_angle_alpha    89.99981869748227
_cell_angle_beta     89.999860132621
_cell_angle_gamma    90.00027584547588

_space_group_name_H-M_alt    "P 1"
_space_group_IT_number       1

loop_
  _space_group_symop_operation_xyz
  'x, y, z'

loop_
  _atom_site_type_symbol
  _atom_site_label
  _atom_site_symmetry_multiplicity
  _atom_site_fract_x
  _atom_site_fract_y
  _atom_site_fract_z
  _atom_site_occupancy
  Cd  Cd1       1.0  0.8224945793031109  0.5838702440535785  0.23481732426417073  1.0000
  Cd  Cd2       1.0  0.6775071183886396  0.0838688638256286  0.265184907706022  1.0000
  Cd  Cd3       1.0  0.8224934852419423  0.9161302707098854  0.7651837423776088  1.0000
  Cd  Cd4       1.0  0.6775077879120631  0.41613033156760076  0.7348165201899874  1.0000
  Cd  Cd5       1.0  0.17750040762806663  0.4161325108223225  0.7651850446515168  1.0000
  Cd  Cd6       1.0  0.322495143693601  0.9161287371635681  0.7348154271431184  1.0000
  Cd  Cd7       1.0  0.1775047350994186  0.0838705514688058  0.23481415159017163  1.0000
  Cd  Cd8       1.0  0.322493665823707  0.5838692021337126  0.2651842214711593  1.0000
  H   H1        1.0  0.32318972567799875  0.2705538111061401  0.1820277980265601  1.0000
  H   H2        1.0  0.4415124498292045  0.3077145453266255  0.10236629403089381  1.0000
  H   H3        1.0  0.6157689427468539  0.3901960149776755  0.119751276844795  1.0000
  H   H4        1.0  0.6190344664227609  0.2973798445024869  0.42798007870346316  1.0000
  H   H5        1.0  0.5569768976176589  0.4454945248862288  0.4595523535957682  1.0000
  H   H6        1.0  0.49336499445526977  0.5516895253822938  0.3873567331441023  1.0000
  H   H7        1.0  0.7502727633283045  0.5164412672830706  0.3489660325291695  1.0000
  H   H8        1.0  0.814398156448938  0.4903946022646366  0.443319073609338  1.0000
  H   H9        1.0  0.12088655585742457  0.6030532567315561  0.3950900281041498  1.0000
  H   H10       1.0  0.0412513116906652  0.6266311631489431  0.3038161699612019  1.0000
  H   H11       1.0  0.10266432673279269  0.5525530875989164  0.48723455411255395  1.0000
  H   H12       1.0  0.6510055265915469  0.7014896669764354  0.2780656494763534  1.0000
  H   H13       1.0  0.6007621496519064  0.6033366455139629  0.2813918848934804  1.0000
  H   H14       1.0  0.1768081787631388  0.7705522780245603  0.317975491645285  1.0000
  H   H15       1.0  0.058484869248268005  0.8077115106651721  0.3976365147869458  1.0000
  H   H16       1.0  0.8842289346610028  0.8901949700957132  0.3802507515895499  1.0000
  H   H17       1.0  0.8809677041316489  0.7973803359604404  0.0720229482889607  1.0000
  H   H18       1.0  0.9430277784343062  0.9454941262322621  0.0404491578385375  1.0000
  H   H19       1.0  0.0066364467696189  0.05169211716422241  0.11264414491247271  1.0000
  H   H20       1.0  0.7497277214020599  0.016442672358856204  0.1510347065368549  1.0000
  H   H21       1.0  0.6856059806861126  0.990395060465339  0.0566827551748901  1.0000
  H   H22       1.0  0.37911681028423055  0.10305281640142991  0.10490912035873382  1.0000
  H   H23       1.0  0.45875138759529926  0.1266337929193071  0.196182117893386  1.0000
  H   H24       1.0  0.39733792802951473  0.05255640189361092  0.0127655085952796  1.0000
  H   H25       1.0  0.8489976852754778  0.20149883002341804  0.221940009447728  1.0000
  H   H26       1.0  0.8992356231106201  0.10334150966613721  0.2186119355400393  1.0000
  H   H27       1.0  0.3231904894758202  0.229450458135787  0.8179716255293669  1.0000
  H   H28       1.0  0.4415109886285933  0.19228695973871618  0.8976325769332263  1.0000
  H   H29       1.0  0.6157654539764366  0.10980358619112712  0.88024737942537  1.0000
  H   H30       1.0  0.6190322170694387  0.202619125043455  0.5720185735431969  1.0000
  H   H31       1.0  0.5569787622756551  0.05450291649268731  0.5404475955497929  1.0000
  H   H32       1.0  0.4933721064381587  0.9483071411933041  0.6126439253819669  1.0000
  H   H33       1.0  0.7502742427042082  0.9835615454878524  0.6510334958376803  1.0000
  H   H34       1.0  0.8143980564698694  0.0096070545832845  0.5566805583708857  1.0000
  H   H35       1.0  0.1208853135326109  0.8969490577671665  0.6049090552756837  1.0000
  H   H36       1.0  0.04124948641810279  0.873370843761009  0.6961826047224591  1.0000
  H   H37       1.0  0.1026646414676264  0.9474485122807578  0.5127649585316334  1.0000
  H   H38       1.0  0.6510047442523899  0.7985088969389906  0.7219360352680226  1.0000
  H   H39       1.0  0.6007619723941531  0.8966623685814669  0.7186082344999322  1.0000
  H   H40       1.0  0.1768120251449332  0.7294463870501247  0.6820235228354009  1.0000
  H   H41       1.0  0.0584848361884553  0.6922873416211602  0.6023622386657196  1.0000
  H   H42       1.0  0.8842275141989974  0.6098051388759201  0.6197502389914646  1.0000
  H   H43       1.0  0.8809669665378761  0.7026229816113628  0.9279764190527616  1.0000
  H   H44       1.0  0.9430235742823853  0.5545094310338713  0.959551760296165  1.0000
  H   H45       1.0  0.0066341465351485  0.44830899667475427  0.8873577027331265  1.0000
  H   H46       1.0  0.7497290517799371  0.4835587347001892  0.8489666323753297  1.0000
  H   H47       1.0  0.6856064357124865  0.5096062140485955  0.9433188869356641  1.0000
  H   H48       1.0  0.37911658949043664  0.39694780342071573  0.8950922683622622  1.0000
  H   H49       1.0  0.4587522751084093  0.3733664902528346  0.8038191727114707  1.0000
  H   H50       1.0  0.3973367562331802  0.447444932545487  0.9872350440489228  1.0000
  H   H51       1.0  0.8490014815338538  0.29849973928251233  0.7780587662770699  1.0000
  H   H52       1.0  0.8992359505304532  0.3966585421479466  0.7813884055422592  1.0000
  H   H53       1.0  0.6768117280459263  0.7294463668190903  0.8179786390221012  1.0000
  H   H54       1.0  0.5584849621469914  0.6922882095447561  0.8976397362042476  1.0000
  H   H55       1.0  0.3842276608693638  0.6098035187020017  0.8802543465806137  1.0000
  H   H56       1.0  0.38097183740605084  0.702618400720482  0.5720251379038146  1.0000
  H   H57       1.0  0.44303183127082246  0.5545056530561184  0.5404528630080989  1.0000
  H   H58       1.0  0.5066429260713505  0.44830614289392656  0.6126472630244351  1.0000
  H   H59       1.0  0.24972545701685792  0.4835621318444653  0.6510334886898052  1.0000
  H   H60       1.0  0.18560329729364605  0.5096062199162077  0.5566804476102121  1.0000
  H   H61       1.0  0.8791157062365115  0.3969462769784685  0.6049078658624225  1.0000
  H   H62       1.0  0.95875095039365  0.3733645051337221  0.6961809103823455  1.0000
  H   H63       1.0  0.8973355102926988  0.44744322491014543  0.512765373925923  1.0000
  H   H64       1.0  0.3489983521589437  0.29850600127154087  0.7219464829634604  1.0000
  H   H65       1.0  0.3992368790073612  0.3966628881591561  0.7186182134782726  1.0000
  H   H66       1.0  0.8231876164991262  0.22944210176098073  0.6820248432110461  1.0000
  H   H67       1.0  0.9415133510727428  0.19228351336634833  0.6023625996269288  1.0000
  H   H68       1.0  0.1157709023722475  0.10980327513009773  0.6197483628201184  1.0000
  H   H69       1.0  0.11903294125574601  0.20261984197856725  0.9279773865586024  1.0000
  H   H70       1.0  0.0569728669511917  0.0545047632323232  0.9595503633834355  1.0000
  H   H71       1.0  0.9933609652145845  0.948308060770586  0.8873553763102109  1.0000
  H   H72       1.0  0.2502761573846897  0.983555572871694  0.8489656283106441  1.0000
  H   H73       1.0  0.31439951480610523  0.009604473243783206  0.9433179864837696  1.0000
  H   H74       1.0  0.6208886852128687  0.8969473615489819  0.8950904008589688  1.0000
  H   H75       1.0  0.5412516828469831  0.8733657407892185  0.8038169965130066  1.0000
  H   H76       1.0  0.6026651424165621  0.9474457087637589  0.9872352330623073  1.0000
  H   H77       1.0  0.151001343421882  0.7985058575790803  0.7780607322097808  1.0000
  H   H78       1.0  0.1007634055809419  0.8966612452216581  0.7813888061193951  1.0000
  H   H79       1.0  0.6768125809839558  0.770552941008269  0.18202504799253919  1.0000
  H   H80       1.0  0.5584856150083297  0.8077119297262386  0.1023636897837221  1.0000
  H   H81       1.0  0.38423195800779547  0.8901959475074933  0.11975132817106982  1.0000
  H   H82       1.0  0.3809660032652786  0.7973771874747584  0.4279764727350042  1.0000
  H   H83       1.0  0.4430259248469638  0.9454895305973636  0.4595519256761095  1.0000
  H   H84       1.0  0.5066366224446667  0.0516885270895884  0.3873580367188723  1.0000
  H   H85       1.0  0.2497280193983826  0.016441853648508704  0.3489656185653587  1.0000
  H   H86       1.0  0.18560420563370167  0.9903963445540998  0.4433181492187188  1.0000
  H   H87       1.0  0.8791161402186843  0.1030543413676384  0.3950900591278597  1.0000
  H   H88       1.0  0.958753584048324  0.1266370650435249  0.3038169164890334  1.0000
  H   H89       1.0  0.897334387230785  0.052554886850380504  0.4872337490599676  1.0000
  H   H90       1.0  0.3489975178745865  0.20149836764006324  0.2780577905564598  1.0000
  H   H91       1.0  0.3992354396095479  0.10334103055473073  0.281387218585138  1.0000
  H   H92       1.0  0.8231845785006655  0.2705557236049715  0.3179731506917705  1.0000
  H   H93       1.0  0.941510150747817  0.30771219207890255  0.3976340280515771  1.0000
  H   H94       1.0  0.11576828108076141  0.3901931063451515  0.38024765498037993  1.0000
  H   H95       1.0  0.11903448720287459  0.2973752636226764  0.0720206612887182  1.0000
  H   H96       1.0  0.0569786878135545  0.4454894584420117  0.0404445064173018  1.0000
  H   H97       1.0  0.9933640737985884  0.551687315842429  0.1126377503585161  1.0000
  H   H98       1.0  0.2502740186642356  0.5164420874827514  0.15103329565666  1.0000
  H   H99       1.0  0.3144006764862084  0.49039396390392664  0.0566810410944854  1.0000
  H   H100      1.0  0.6208872893088682  0.6030549514764444  0.10490847329418779  1.0000
  H   H101      1.0  0.5412499869863439  0.6266362646391601  0.1961823825728501  1.0000
  H   H102      1.0  0.6026663142071342  0.552554601160992  0.012764883984353  1.0000
  H   H103      1.0  0.1509999721873996  0.7014952847501377  0.22194238220201612  1.0000
  H   H104      1.0  0.10076226979344229  0.6033377703590191  0.21861111568377112  1.0000
  C   C1        1.0  0.39952081273201395  0.3044776004834945  0.18628624029132373  1.0000
  C   C2        1.0  0.4665179442585269  0.3258981149837936  0.14326972459266332  1.0000
  C   C3        1.0  0.5624523776546795  0.37035651294357314  0.1526507391153373  1.0000
  C   C4        1.0  0.5904342000083177  0.39142366732972544  0.20603194678515283  1.0000
  C   C5        1.0  0.523049859137778  0.36668919150876894  0.2486900633837266  1.0000
  C   C6        1.0  0.5426223788364622  0.3839314740522966  0.3073285301223123  1.0000
  C   C7        1.0  0.5801239465610876  0.32298715948321916  0.3448733800608538  1.0000
  C   C8        1.0  0.5873901502048399  0.3451894178705858  0.39975085919167713  1.0000
  C   C9        1.0  0.5543489945570813  0.4267395636360122  0.41685648980365647  1.0000
  C   C10       1.0  0.5192878358155681  0.4860868176168793  0.37880230952662697  1.0000
  C   C11       1.0  0.6884436886908034  0.44455479557050387  0.21892578543886293  1.0000
  C   C12       1.0  0.619403134429156  0.23540051708083357  0.3263491931565384  1.0000
  C   C13       1.0  0.8307910467872971  0.5361434843325411  0.3617447870581572  1.0000
  C   C14       1.0  0.8680065604195163  0.5211114142903954  0.41396457263378045  1.0000
  C   C15       1.0  0.9745804384631782  0.5442210548144929  0.42788238534732403  1.0000
  C   C16       1.0  0.0370427066119845  0.5847651228581371  0.38761408739809156  1.0000
  C   C17       1.0  0.9932739437240913  0.5974598806712237  0.3361027679753974  1.0000
  C   C18       1.0  0.022517038011834193  0.5248880715166918  0.4804982073038389  1.0000
  C   C19       1.0  0.1004781036316302  0.8044764382191334  0.31371576134637286  1.0000
  C   C20       1.0  0.0334802922899229  0.8258964777714793  0.35673264117918535  1.0000
  C   C21       1.0  0.9375478057558909  0.8703558393285532  0.3473517356606878  1.0000
  C   C22       1.0  0.9095693432346934  0.8914257308538538  0.2939700791965194  1.0000
  C   C23       1.0  0.97695434403132  0.8666917296722332  0.2513128255071706  1.0000
  C   C24       1.0  0.9573819278004193  0.8839335870595095  0.19267310397352588  1.0000
  C   C25       1.0  0.9198767609589851  0.8229906047797187  0.1551308163475014  1.0000
  C   C26       1.0  0.9126147322981877  0.8451898897014306  0.1002508520986396  1.0000
  C   C27       1.0  0.9456563773090776  0.9267408932890006  0.08314465218414571  1.0000
  C   C28       1.0  0.9807146587763569  0.9860893799303484  0.1211983073994176  1.0000
  C   C29       1.0  0.8115585566746191  0.9445578338030957  0.2810773551196704  1.0000
  C   C30       1.0  0.88059138905124  0.7354030733274115  0.17365314370490384  1.0000
  C   C31       1.0  0.6692111728772758  0.0361452868712249  0.1382546923096015  1.0000
  C   C32       1.0  0.6319955690421678  0.021113335506100797  0.0860349366851736  1.0000
  C   C33       1.0  0.5254234463754841  0.044223278574349906  0.07211748473793732  1.0000
  C   C34       1.0  0.4629629748443378  0.08476625728186352  0.11238591112761041  1.0000
  C   C35       1.0  0.5067302605871973  0.0974615710104274  0.1638957755920032  1.0000
  C   C36       1.0  0.47748424238712056  0.024890373047817597  0.0195015037144515  1.0000
  C   C37       1.0  0.3995189685010914  0.19552438662896784  0.813712275595968  1.0000
  C   C38       1.0  0.46651576342974715  0.17410348666311387  0.8567291155631551  1.0000
  C   C39       1.0  0.5624499754094572  0.1296428822927211  0.8473483896578246  1.0000
  C   C40       1.0  0.5904311211825328  0.1085758359841833  0.7939671475126033  1.0000
  C   C41       1.0  0.5230471350605795  0.13331005153691686  0.751308707123208  1.0000
  C   C42       1.0  0.5426190265611837  0.11606848882968285  0.6926698094560351  1.0000
  C   C43       1.0  0.5801211415875969  0.17701294824743738  0.6551253201256985  1.0000
  C   C44       1.0  0.5873882857747647  0.15480942945090703  0.6002478320430455  1.0000
  C   C45       1.0  0.5543499568993512  0.0732572233537496  0.5831430557674437  1.0000
  C   C46       1.0  0.5192898746786625  0.013910478189536904  0.6211976860547281  1.0000
  C   C47       1.0  0.6884395450529368  0.05544444206275052  0.7810727812913214  1.0000
  C   C48       1.0  0.6194031904949213  0.26459909813176113  0.6736494586338324  1.0000
  C   C49       1.0  0.8307908530393745  0.9638583509601021  0.6382538284792432  1.0000
  C   C50       1.0  0.8680067094500005  0.9788924974593414  0.5860348106759119  1.0000
  C   C51       1.0  0.9745788994150785  0.9557768261879501  0.5721168666623768  1.0000
  C   C52       1.0  0.037042346218342494  0.9152368677959687  0.6123859129103266  1.0000
  C   C53       1.0  0.9932724496605514  0.902543226438212  0.6638972746241477  1.0000
  C   C54       1.0  0.022516677815651993  0.9751119303157268  0.5195026245301548  1.0000
  C   C55       1.0  0.1004776840932564  0.6955264416883081  0.6862849744308974  1.0000
  C   C56       1.0  0.0334791439259163  0.6741067875968413  0.6432677703310503  1.0000
  C   C57       1.0  0.9375503869836307  0.6296451198356152  0.6526475619703974  1.0000
  C   C58       1.0  0.909567498077777  0.6085744759965693  0.7060296597230504  1.0000
  C   C59       1.0  0.9769532493236424  0.6333074489746197  0.7486872372030221  1.0000
  C   C60       1.0  0.9573812543620334  0.616066804466776  0.8073269828498795  1.0000
  C   C61       1.0  0.9198754632975862  0.6770122188357561  0.8448693166830523  1.0000
  C   C62       1.0  0.912612227633602  0.6548116173869049  0.8997488830678932  1.0000
  C   C63       1.0  0.9456524921968068  0.5732626741326711  0.9168554490848352  1.0000
  C   C64       1.0  0.9807097932268289  0.513913034421428  0.8788029711171959  1.0000
  C   C65       1.0  0.8115571386759087  0.5554419944814627  0.7189237249969906  1.0000
  C   C66       1.0  0.8805915149083956  0.7645963773641782  0.8263458172903456  1.0000
  C   C67       1.0  0.6692123232083349  0.4638551649555396  0.861747152619536  1.0000
  C   C68       1.0  0.6319965570083214  0.4788876168165217  0.9139661404690997  1.0000
  C   C69       1.0  0.5254242283524277  0.4557779063556069  0.9278833169076606  1.0000
  C   C70       1.0  0.462961283242592  0.4152340421524272  0.8876153742898296  1.0000
  C   C71       1.0  0.5067303586419883  0.4025382532378431  0.8361058627136586  1.0000
  C   C72       1.0  0.47748407753425676  0.47510998247838643  0.9804993569972567  1.0000
  C   C73       1.0  0.6004782159555758  0.6955257986363962  0.8137169422481064  1.0000
  C   C74       1.0  0.5334794677186848  0.6741039956524234  0.8567350852028001  1.0000
  C   C75       1.0  0.43754907606538035  0.6296423765051884  0.84735569793461  1.0000
  C   C76       1.0  0.40956806205533525  0.6085720009314813  0.7939736766406256  1.0000
  C   C77       1.0  0.47695482797583816  0.6333058325168395  0.7513163736680825  1.0000
  C   C78       1.0  0.4573790748759379  0.616063549971159  0.6926762796777196  1.0000
  C   C79       1.0  0.41987831549378274  0.677007220296403  0.6551342774334046  1.0000
  C   C80       1.0  0.4126161536191261  0.6548075388748913  0.6002547642303284  1.0000
  C   C81       1.0  0.4456540758656616  0.5732573931073047  0.5831475063665792  1.0000
  C   C82       1.0  0.4807168513078182  0.5139094948913298  0.6212016866432606  1.0000
  C   C83       1.0  0.31155938173201037  0.5554408727004444  0.7810765834788995  1.0000
  C   C84       1.0  0.3805950858858864  0.7645957954169307  0.6736539893904521  1.0000
  C   C85       1.0  0.169208790251794  0.46385604937177755  0.638253513723356  1.0000
  C   C86       1.0  0.13199489332306774  0.47888940789044915  0.5860349485857697  1.0000
  C   C87       1.0  0.025422631969433996  0.455775257702861  0.5721167290622802  1.0000
  C   C88       1.0  0.9629587471219593  0.415231833896371  0.6123842133849848  1.0000
  C   C89       1.0  0.006728318361098198  0.4025377203210354  0.6638963464334182  1.0000
  C   C90       1.0  0.9774811823149108  0.47511017370190695  0.5195025343605836  1.0000
  C   C91       1.0  0.8995217333957228  0.1955218070005458  0.6862857939439381  1.0000
  C   C92       1.0  0.9665187363968641  0.17410370016644802  0.6432668800425034  1.0000
  C   C93       1.0  0.0624512229260787  0.12964240589569437  0.652647378749478  1.0000
  C   C94       1.0  0.09043453555887737  0.10857380285623461  0.7060290352093759  1.0000
  C   C95       1.0  0.0230503431155071  0.13330780404145062  0.7486854752713513  1.0000
  C   C96       1.0  0.04262114264182059  0.1160665908852039  0.8073268240591034  1.0000
  C   C97       1.0  0.0801222677325839  0.17701215010807664  0.8448699253119328  1.0000
  C   C98       1.0  0.08738914650023588  0.15481093248614292  0.899747855492535  1.0000
  C   C99       1.0  0.05434588478089349  0.07325928465312612  0.9168556826624226  1.0000
  C   C100      1.0  0.019284369915275996  0.013912086485071  0.8788008070075435  1.0000
  C   C101      1.0  0.18844370541338407  0.05544234413699199  0.718923793353774  1.0000
  C   C102      1.0  0.11940521458258499  0.2645983930792326  0.8263475979573087  1.0000
  C   C103      1.0  0.330792705910497  0.9638523141241536  0.8617444220982264  1.0000
  C   C104      1.0  0.36800669305367256  0.9788874866783531  0.9139637709069959  1.0000
  C   C105      1.0  0.4745812407635411  0.9557749666587868  0.9278824432956226  1.0000
  C   C106      1.0  0.5370425206527614  0.9152339206685556  0.887613610090085  1.0000
  C   C107      1.0  0.49327442655959425  0.9025386069394444  0.8361033388127552  1.0000
  C   C108      1.0  0.5225172113574672  0.975109804898878  0.9804963902519788  1.0000
  C   C109      1.0  0.6004800601876923  0.8044751470748182  0.1862856183726009  1.0000
  C   C110      1.0  0.5334816485496746  0.8258941143218268  0.1432691852217758  1.0000
  C   C111      1.0  0.4375530950377424  0.870356651420913  0.1526486906813744  1.0000
  C   C112      1.0  0.4095703325698209  0.8914262746792616  0.2060299328250252  1.0000
  C   C113      1.0  0.476955935403069  0.866694636083608  0.24868796639741927  1.0000
  C   C114      1.0  0.45738323554537164  0.8839342660745759  0.307326864067015  1.0000
  C   C115      1.0  0.41987707876258173  0.8229885181766362  0.3448697261473654  1.0000
  C   C116      1.0  0.4126115512605253  0.8451875273045673  0.39974884148727335  1.0000
  C   C117      1.0  0.4456490717758683  0.9267384449185843  0.4168556518318526  1.0000
  C   C118      1.0  0.48071400410422166  0.9860864785645448  0.378802648794057  1.0000
  C   C119      1.0  0.3115594836464979  0.9445583128332232  0.2189247058606014  1.0000
  C   C120      1.0  0.3805958382056005  0.7354017240566648  0.3263451808259319  1.0000
  C   C121      1.0  0.16920979236643774  0.036146980887835405  0.3617452859228719  1.0000
  C   C122      1.0  0.13199474430902572  0.021113478628393502  0.4139643037250663  1.0000
  C   C123      1.0  0.025421745977233498  0.0442233517561661  0.42788143411799245  1.0000
  C   C124      1.0  0.9629607242374332  0.08476781981637062  0.3876140151178191  1.0000
  C   C125      1.0  0.0067298124477659  0.09746339388522782  0.3361034670294458  1.0000
  C   C126      1.0  0.9774815425265473  0.024891468808739606  0.4804981171291375  1.0000
  C   C127      1.0  0.899514877800641  0.30447889014504176  0.3137137331627571  1.0000
  C   C128      1.0  0.9665142263193048  0.32589790000188407  0.3567301236358702  1.0000
  C   C129      1.0  0.0624486417139423  0.37035570234974813  0.34734829792969185  1.0000
  C   C130      1.0  0.09042910555622537  0.39142376922912797  0.2939670138079791  1.0000
  C   C131      1.0  0.023043354318090802  0.36669337320401496  0.2513094363254424  1.0000
  C   C132      1.0  0.04261615762613501  0.38393272923593  0.1926700974928082  1.0000
  C   C133      1.0  0.0801211403441826  0.3229879591066904  0.1551265432191755  1.0000
  C   C134      1.0  0.0873892261061684  0.3451866278461182  0.1002486040870281  1.0000
  C   C135      1.0  0.0543473448442882  0.4267362153375062  0.08314122444355829  1.0000
  C   C136      1.0  0.0192876187604298  0.4860852108078788  0.1211928887864602  1.0000
  C   C137      1.0  0.18844027330351315  0.444555606503478  0.2810745757879404  1.0000
  C   C138      1.0  0.11940185531847898  0.2354018678532341  0.1736516698695496  1.0000
  C   C139      1.0  0.3307923639364246  0.5361463014646689  0.1382544026645789  1.0000
  C   C140      1.0  0.3680073217803326  0.5211119168884509  0.08603500800399641  1.0000
  C   C141      1.0  0.4745812671523665  0.5442254927839302  0.0721170179337065  1.0000
  C   C142      1.0  0.5370417872015523  0.5847674242667082  0.1123853673684039  1.0000
  C   C143      1.0  0.4932719034459793  0.5974625689384327  0.1638960993860294  1.0000
  C   C144      1.0  0.5225189929069316  0.5248914839376796  0.0195026051012874  1.0000
  N   N1        1.0  0.42755194574807825  0.3248676639740324  0.2383172347998297  1.0000
  N   N2        1.0  0.5165249580519743  0.46510861763351846  0.3250936014136201  1.0000
  N   N3        1.0  0.89251372223994  0.5730933403536583  0.323071399417131  1.0000
  N   N4        1.0  0.0724487096736226  0.82486729915221  0.2616855398358666  1.0000
  N   N5        1.0  0.9834757939503264  0.965110920709762  0.17490787093950638  1.0000
  N   N6        1.0  0.6074903358584223  0.0730966428640798  0.1769275995123039  1.0000
  N   N7        1.0  0.42755103916584153  0.1751324986949214  0.7616812465522358  1.0000
  N   N8        1.0  0.5165276713810769  0.034889955978123104  0.6749068043835607  1.0000
  N   N9        1.0  0.8925115030165143  0.9269100218124465  0.6769275468864606  1.0000
  N   N10       1.0  0.07244791611434209  0.6751328955399318  0.738314823665192  1.0000
  N   N11       1.0  0.9834737391140463  0.5348902158367892  0.8250929973612814  1.0000
  N   N12       1.0  0.607490643152552  0.42690357056726214  0.8230739146488518  1.0000
  N   N13       1.0  0.5724478912732991  0.6751318697118905  0.7616883886235897  1.0000
  N   N14       1.0  0.4834764956691372  0.5348889833438976  0.6749108015704124  1.0000
  N   N15       1.0  0.10748853985305118  0.42690554911916223  0.6769260877366463  1.0000
  N   N16       1.0  0.9275543607599416  0.17512965760235494  0.7383139813865397  1.0000
  N   N17       1.0  0.016526468149386596  0.03489118995115349  0.825090836651384  1.0000
  N   N18       1.0  0.392514351285456  0.9269028908465416  0.8230719217065358  1.0000
  N   N19       1.0  0.5724504145855676  0.8248689677313124  0.2383154269725907  1.0000
  N   N20       1.0  0.4834737823624522  0.9651115104399325  0.3250931236487915  1.0000
  N   N21       1.0  0.10749075910153748  0.0730985312297818  0.3230715675114482  1.0000
  N   N22       1.0  0.9275470708315224  0.32487114782367843  0.2616830703013733  1.0000
  N   N23       1.0  0.0165236728799627  0.4651106063444246  0.1749032693532371  1.0000
  N   N24       1.0  0.392512427288672  0.573097251612616  0.1769272338234558  1.0000
  O   O1        1.0  0.7289018992360426  0.48956016534110364  0.1802747776114444  1.0000
  O   O2        1.0  0.7205892838729254  0.44701508093503145  0.2676908969833818  1.0000
  O   O3        1.0  0.6747636685530124  0.1909094497098209  0.3589345530616654  1.0000
  O   O4        1.0  0.5954945804733996  0.21348038751256132  0.2775954867007684  1.0000
  O   O5        1.0  0.3655092038677735  0.3032442294025373  0.2791829249942666  1.0000
  O   O6        1.0  0.4938736066886378  0.5255813745840072  0.2891052110158512  1.0000
  O   O7        1.0  0.6658482936068921  0.6379710386567724  0.2734280304032382  1.0000
  O   O8        1.0  0.7710989994826248  0.989560276116407  0.3197282732780451  1.0000
  O   O9        1.0  0.779413784607634  0.9470182400680471  0.23231223867242787  1.0000
  O   O10       1.0  0.8252233128006877  0.6909171097689821  0.14106868607426293  1.0000
  O   O11       1.0  0.9045127450839701  0.713478281466472  0.2224040461390118  1.0000
  O   O12       1.0  0.1344913217923107  0.8032423768656118  0.22082029954092516  1.0000
  O   O13       1.0  0.006124444470657401  0.025585403367586  0.2108944986213146  1.0000
  O   O14       1.0  0.8341634289291306  0.13798140951822555  0.226594841239141  1.0000
  O   O15       1.0  0.7288964902420715  0.010440517032705498  0.8197245528973979  1.0000
  O   O16       1.0  0.7205869780382201  0.05298556933755799  0.7323084437653479  1.0000
  O   O17       1.0  0.6747689993020387  0.3090884466235408  0.6410652509591515  1.0000
  O   O18       1.0  0.5954904905152105  0.28651977958523395  0.7224027877352982  1.0000
  O   O19       1.0  0.3655086247001193  0.19675827057874784  0.7208168532369115  1.0000
  O   O20       1.0  0.49387555002513744  0.9744165824246239  0.7108946332585901  1.0000
  O   O21       1.0  0.665847061647021  0.862028226827789  0.7265728224264337  1.0000
  O   O22       1.0  0.7710966900208973  0.5104374631769204  0.6802732635038993  1.0000
  O   O23       1.0  0.7794121159844778  0.5529821082960639  0.7676888810486489  1.0000
  O   O24       1.0  0.8252203146005073  0.8090827712973265  0.8589303431401163  1.0000
  O   O25       1.0  0.9045108132547239  0.7865231943354305  0.7775932581288246  1.0000
  O   O26       1.0  0.1344896519971428  0.6967580574645496  0.7791791738923876  1.0000
  O   O27       1.0  0.0061227761054781  0.47441570849910863  0.7891057224009614  1.0000
  O   O28       1.0  0.8341652037923808  0.3620177467180241  0.773406800457316  1.0000
  O   O29       1.0  0.2710938960415419  0.5104419452950567  0.819728811744703  1.0000
  O   O30       1.0  0.2794129782052792  0.5529844527586433  0.7323135059982206  1.0000
  O   O31       1.0  0.3252248515281337  0.8090817088602764  0.6410698499367555  1.0000
  O   O32       1.0  0.40451819018815627  0.7865217231635385  0.7224052549508428  1.0000
  O   O33       1.0  0.6344906331583857  0.6967578812332461  0.7208239188669054  1.0000
  O   O34       1.0  0.5061238052750809  0.47441558214838864  0.7108987851578733  1.0000
  O   O35       1.0  0.33417175208794697  0.3620207641204444  0.7266129857846623  1.0000
  O   O36       1.0  0.2289064960095857  0.010439257592714997  0.6802724683806147  1.0000
  O   O37       1.0  0.22059090254397515  0.05298387059550441  0.7676872825438464  1.0000
  O   O38       1.0  0.17476520733180215  0.30908886628763815  0.858932869215316  1.0000
  O   O39       1.0  0.09548951700508472  0.286520608002256  0.7775950682685249  1.0000
  O   O40       1.0  0.86551579039574  0.19675457989471573  0.7791800353058633  1.0000
  O   O41       1.0  0.9938745842190427  0.9744154188095991  0.7891046157862931  1.0000
  O   O42       1.0  0.16583964151181618  0.8620245665511634  0.7734128162430665  1.0000
  O   O43       1.0  0.2710968799915463  0.9895603051366139  0.18027334107337373  1.0000
  O   O44       1.0  0.2794136673598969  0.9470165413212611  0.2676898570130959  1.0000
  O   O45       1.0  0.3252308377478386  0.6909117313282142  0.3589293885007621  1.0000
  O   O46       1.0  0.40451500498490833  0.7134791098958645  0.2775938857896065  1.0000
  O   O47       1.0  0.6344920206970811  0.8032425516066655  0.2791802271025006  1.0000
  O   O48       1.0  0.5061242870196097  0.025587460939156904  0.2891069220259439  1.0000
  O   O49       1.0  0.3341681341683298  0.1379816147915278  0.2733961877677089  1.0000
  O   O50       1.0  0.2288991052452332  0.48955820508508197  0.3197270713511458  1.0000
  O   O51       1.0  0.2205869127052509  0.4470180696449263  0.23230941973271513  1.0000
  O   O52       1.0  0.17476658880055135  0.190910964237915  0.1410679576551388  1.0000
  O   O53       1.0  0.0954882154475882  0.21348084903598868  0.2224046358352538  1.0000
  O   O54       1.0  0.8655037182461811  0.3032453416597534  0.22081790644893567  1.0000
  O   O55       1.0  0.9938697857905581  0.5255864021553407  0.2108881034346268  1.0000
  O   O56       1.0  0.16583301651774462  0.637978565774631  0.2265984161568682  1.0000
