data_image0
_chemical_formula_structural       K2H52C32S2N6O18
_chemical_formula_sum              "K2 H52 C32 S2 N6 O18"
_cell_length_a       8.042067536177465
_cell_length_b       8.411515917368606
_cell_length_c       15.852
_cell_angle_alpha    94.33061801168243
_cell_angle_beta     102.99890634966164
_cell_angle_gamma    95.468596588024

_space_group_name_H-M_alt    "P 1"
_space_group_IT_number       1

loop_
  _space_group_symop_operation_xyz
  'x, y, z'

loop_
  _atom_site_type_symbol
  _atom_site_label
  _atom_site_symmetry_multiplicity
  _atom_site_fract_x
  _atom_site_fract_y
  _atom_site_fract_z
  _atom_site_occupancy
  K   K1        1.0  0.430272664600615  0.7636731030631907  0.5154863514287129  1.0000
  K   K2        1.0  0.5697254135425494  0.2363280537790331  0.4845115200259187  1.0000
  H   H1        1.0  0.9586256763444039  0.7582321757132675  0.4010568465843747  1.0000
  H   H2        1.0  0.041373381004966285  0.2417665805433131  0.5989429329282245  1.0000
  H   H3        1.0  0.015599465996828602  0.7613697411429357  0.5013414806713641  1.0000
  H   H4        1.0  0.9843984636675172  0.2386302154064595  0.49865821825154194  1.0000
  H   H5        1.0  0.2628971778881207  0.0679317724015078  0.5794416167613363  1.0000
  H   H6        1.0  0.7371020279400751  0.9320681841478873  0.42055885862389886  1.0000
  H   H7        1.0  0.20460394996750605  0.0716922898043961  0.47915904384439045  1.0000
  H   H8        1.0  0.7953965320245329  0.928307666744999  0.5208415771679498  1.0000
  H   H9        1.0  0.456902227964349  0.7055801309015379  0.2965563781868568  1.0000
  H   H10       1.0  0.5430969778638468  0.2944198256478643  0.7034434663631542  1.0000
  H   H11       1.0  0.5288710256398159  0.9791988819908041  0.71413520374211  1.0000
  H   H12       1.0  0.4711299017886715  0.020804675437048607  0.2858668740529069  1.0000
  H   H13       1.0  0.6957422941732432  0.9222425871290412  0.6972427201362237  1.0000
  H   H14       1.0  0.30425735709140156  0.0777609702988187  0.30275858119645693  1.0000
  H   H15       1.0  0.6286450947739225  0.8421122388049156  0.21968217553076394  1.0000
  H   H16       1.0  0.37135538721811656  0.1578877177444866  0.7803184454815764  1.0000
  H   H17       1.0  0.395969262294976  0.4199392469340921  0.5841325423635197  1.0000
  H   H18       1.0  0.6040313681758818  0.5800619099081246  0.4158681436862253  1.0000
  H   H19       1.0  0.19970064436456164  0.4156085904420337  0.5395384652138873  1.0000
  H   H20       1.0  0.8002998376274773  0.5843913661073687  0.460462155798453  1.0000
  H   H21       1.0  0.42090381973870444  0.8088857329808476  0.9468880711436823  1.0000
  H   H22       1.0  0.5790990661022164  0.191113023275733  0.0531102527445597  1.0000
  H   H23       1.0  0.4631342114789587  0.5459063774419235  0.8764802788378532  1.0000
  H   H24       1.0  0.5368702474834421  0.4540947794002932  0.12351453574095221  1.0000
  H   H25       1.0  0.31637515022395485  0.4628677196166109  0.7206236607594718  1.0000
  H   H26       1.0  0.6836232248768395  0.5371358378112419  0.2793730790995284  1.0000
  H   H27       1.0  0.134074457766225  0.6452462120462457  0.6363064179320048  1.0000
  H   H28       1.0  0.8659186642003645  0.3547561450887926  0.3636921977220737  1.0000
  H   H29       1.0  0.1482970031117929  0.0430328981578043  0.0968338877294457  1.0000
  H   H30       1.0  0.8517020542375844  0.9569658580987763  0.9031665226183848  1.0000
  H   H31       1.0  0.1295937406326786  0.2793321449091692  0.189803023528782  1.0000
  H   H32       1.0  0.87040389207403  0.7206654110545898  0.8101978069897555  1.0000
  H   H33       1.0  0.22623838537382568  0.576141753560272  0.9885581517619713  1.0000
  H   H34       1.0  0.7737630758244263  0.4238558024034873  0.011442484802657306  1.0000
  H   H35       1.0  0.23994327372223978  0.3342023308509782  0.8963123239003181  1.0000
  H   H36       1.0  0.7600569113121693  0.665795225112781  0.10368816703721252  1.0000
  H   H37       1.0  0.03113810422428289  0.4847766644474234  0.23076460644692529  1.0000
  H   H38       1.0  0.9688609531250946  0.5152220918091501  0.7692358039009051  1.0000
  H   H39       1.0  0.11377392894758029  0.6879514302643772  0.2618421782239722  1.0000
  H   H40       1.0  0.8862252768806085  0.3120485262850252  0.7381576663260319  1.0000
  H   H41       1.0  0.2384720026674073  0.48125380502276016  0.3624440945990414  1.0000
  H   H42       1.0  0.7615272031607885  0.518746151526642  0.6375570116214178  1.0000
  H   H43       1.0  0.3468873536593122  0.4175818718369726  0.2817881901555097  1.0000
  H   H44       1.0  0.6531129798539155  0.582416884419608  0.7182123658194186  1.0000
  H   H45       1.0  0.17197193983188436  0.8303373662475124  0.16960489018747887  1.0000
  H   H46       1.0  0.828028393681336  0.16966139000906824  0.8303962966226806  1.0000
  H   H47       1.0  0.1442530507025026  0.7529076767668244  0.060214775883913794  1.0000
  H   H48       1.0  0.8557487074533866  0.24709227978257792  0.9397859907555315  1.0000
  H   H49       1.0  0.4599057624844106  0.71098144858842  0.091364850204414  1.0000
  H   H50       1.0  0.540096144150297  0.2890197082537966  0.90863661230766  1.0000
  H   H51       1.0  0.4136373180671241  0.9137829233385659  0.10062783262306137  1.0000
  H   H52       1.0  0.5863618877610718  0.0862170332108363  0.8993726427621738  1.0000
  C   C1        1.0  0.1780668324832675  0.8298416453131381  0.7434548977465241  1.0000
  C   C2        1.0  0.8219313941387083  0.1701607118219002  0.2565443004159675  1.0000
  C   C3        1.0  0.2551445636456862  0.8751719039270897  0.8322733363020873  1.0000
  C   C4        1.0  0.7448559183463599  0.12482805262231268  0.1677253922045736  1.0000
  C   C5        1.0  0.3569718726084829  0.7703335279175221  0.8793259342461184  1.0000
  C   C6        1.0  0.6430311617112563  0.229666428631873  0.1206724546795286  1.0000
  C   C7        1.0  0.3801008020088758  0.6236937541827672  0.8392153919842613  1.0000
  C   C8        1.0  0.619902380789682  0.3763074026594566  0.16078116947311827  1.0000
  C   C9        1.0  0.299861400230057  0.5781006314413801  0.7519641892251911  1.0000
  C   C10       1.0  0.7001405064046509  0.4219005254008366  0.2480334882755386  1.0000
  C   C11       1.0  0.19849615056757125  0.6812994074597754  0.7040457326782104  1.0000
  C   C12       1.0  0.8015007998905617  0.3187029496752629  0.2959526890219522  1.0000
  C   C13       1.0  0.20492110802677385  0.1706528318778169  0.9920123232298366  1.0000
  C   C14       1.0  0.795080353171478  0.8293447240859422  0.007988313334791988  1.0000
  C   C15       1.0  0.16878646267808506  0.1608104307594971  0.07458447038322188  1.0000
  C   C16       1.0  0.8312138708351426  0.8391883254970838  0.9254160855917135  1.0000
  C   C17       1.0  0.15724348777541755  0.2955216944559851  0.1268847358375069  1.0000
  C   C18       1.0  0.8427555695739597  0.7044770618005955  0.8731156745103164  1.0000
  C   C19       1.0  0.18558206783301048  0.4510940473520294  0.09980844928608691  1.0000
  C   C20       1.0  0.814418265680217  0.5489047089045513  0.9001921066888414  1.0000
  C   C21       1.0  0.21360006478475663  0.460408319629849  0.014245018139348491  1.0000
  C   C22       1.0  0.7864013964134953  0.5395892363339101  0.98575561842528  1.0000
  C   C23       1.0  0.22191547626081837  0.3241174705831611  0.9618948087677595  1.0000
  C   C24       1.0  0.7780861334162521  0.6758812856734198  0.03810652366949798  1.0000
  C   C25       1.0  0.1465766978673173  0.5711509360175882  0.23890941458724768  1.0000
  C   C26       1.0  0.8534223594820531  0.4288478202389855  0.7610903649253586  1.0000
  C   C27       1.0  0.29131352400057847  0.5198324165281107  0.3080686247143021  1.0000
  C   C28       1.0  0.7086856818276102  0.4801675400212845  0.6919318506709331  1.0000
  C   C29       1.0  0.2192014603542205  0.74585595645339  0.1268219426166723  1.0000
  C   C30       1.0  0.7807988731590001  0.2541427998031907  0.873178613358256  1.0000
  C   C31       1.0  0.4066667364593854  0.7992485819346342  0.1297088525290988  1.0000
  C   C32       1.0  0.5933337455326535  0.200751374614768  0.8702923993184654  1.0000
  S   S1        1.0  0.0451810819056391  0.9595080782900711  0.6830278148250173  1.0000
  S   S2        1.0  0.9548182724013683  0.0404930785521458  0.31697146392717457  1.0000
  N   N1        1.0  0.23430352662247592  0.0271206162522475  0.8696260991955641  1.0000
  N   N2        1.0  0.7656956792057199  0.9728793402971547  0.13037437618967118  1.0000
  N   N3        1.0  0.21804015811244423  0.0255530338302279  0.9479862530110948  1.0000
  N   N4        1.0  0.7819614515646263  0.9744457224263527  0.05201381775571427  1.0000
  N   N5        1.0  0.1861357297549233  0.5857837057777645  0.1536983027748846  1.0000
  N   N6        1.0  0.8138646037582972  0.4142150504788162  0.8463016223648198  1.0000
  O   O1        1.0  0.16027246241139884  0.10394055698072442  0.6749558412191446  1.0000
  O   O2        1.0  0.8397302749507033  0.8960569989830349  0.3250417867964543  1.0000
  O   O3        1.0  0.9684501689872247  0.8677973048452685  0.5979388737895165  1.0000
  O   O4        1.0  0.0315461875556338  0.13220025111849057  0.40206181110192313  1.0000
  O   O5        1.0  0.00479070796919962  0.6913962706557869  0.4472595326826081  1.0000
  O   O6        1.0  0.9952057970524777  0.3086024856007938  0.5527412172462361  1.0000
  O   O7        1.0  0.9169713221295124  0.9986328230282097  0.7315662510896743  1.0000
  O   O8        1.0  0.08303019921424948  0.0013755355709293  0.2684329326788415  1.0000
  O   O9        1.0  0.3005352730465916  0.04703227383173211  0.5252459131631895  1.0000
  O   O10       1.0  0.6994652089454474  0.9529676827176701  0.4747540770139267  1.0000
  O   O11       1.0  0.42455975844397625  0.6491543654659111  0.344427638040237  1.0000
  O   O12       1.0  0.5754394473842199  0.3508455910834912  0.655572206509774  1.0000
  O   O13       1.0  0.5706445013817925  0.8910721829044519  0.6837901235129563  1.0000
  O   O14       1.0  0.429355149882852  0.108931374523408  0.3162124394901795  1.0000
  O   O15       1.0  0.5053528651346325  0.8194615130117668  0.21837174024351919  1.0000
  O   O16       1.0  0.4946464891723749  0.1805396438304498  0.7816294310143519  1.0000
  O   O17       1.0  0.3156860684373583  0.461475379946215  0.5362512873419192  1.0000
  O   O18       1.0  0.6843144135546806  0.5385245766031801  0.46374996450564515  1.0000
