data_image0
_chemical_formula_structural       Cd3H42C46N8O18
_chemical_formula_sum              "Cd3 H42 C46 N8 O18"
_cell_length_a       10.352142931316779
_cell_length_b       10.551743452597375
_cell_length_c       12.975791253227206
_cell_angle_alpha    70.10779021273277
_cell_angle_beta     70.798924320647
_cell_angle_gamma    84.58046251882448

_space_group_name_H-M_alt    "P 1"
_space_group_IT_number       1

loop_
  _space_group_symop_operation_xyz
  'x, y, z'

loop_
  _atom_site_type_symbol
  _atom_site_label
  _atom_site_symmetry_multiplicity
  _atom_site_fract_x
  _atom_site_fract_y
  _atom_site_fract_z
  _atom_site_occupancy
  Cd  Cd1       1.0  0.5000009704629916  0.4999995077802453  0.5000016411576668  1.0000
  Cd  Cd2       1.0  0.14857461485356538  0.3275025295151082  0.26318193285371183  1.0000
  Cd  Cd3       1.0  0.8514233917219373  0.6724974998676603  0.736818919823612  1.0000
  H   H1        1.0  0.14768121111082166  0.23683246141770556  0.5116631960131385  1.0000
  H   H2        1.0  0.8523178178525869  0.7631675758668522  0.4883374131510576  1.0000
  H   H3        1.0  0.06995810557256729  0.14485279194778405  0.4726013233831523  1.0000
  H   H4        1.0  0.9300399127668798  0.8551482453995763  0.5273992542609276  1.0000
  H   H5        1.0  0.7550085139143902  0.5625199910804853  0.4452652009141432  1.0000
  H   H6        1.0  0.24499366512784349  0.43748411113407587  0.5547327954134146  1.0000
  H   H7        1.0  0.7792965964229237  0.4320615438381383  0.4005025519251221  1.0000
  H   H8        1.0  0.2207034308330336  0.5679394999466042  0.5994983208570233  1.0000
  H   H9        1.0  0.46773502683711854  0.45453397811295576  0.2955901294370377  1.0000
  H   H10       1.0  0.5322639421716173  0.5454670484037863  0.704411769022549  1.0000
  H   H11       1.0  0.5020779536319679  0.6095167848899052  0.2650577303193984  1.0000
  H   H12       1.0  0.49791986131556587  0.39048520422479543  0.7349472652773129  1.0000
  H   H13       1.0  0.0735621228078713  0.7459871566313512  0.40339828000733025  1.0000
  H   H14       1.0  0.9264379879306476  0.2540149138504192  0.5966007534129573  1.0000
  H   H15       1.0  0.15995105767123619  0.5279362963431568  0.819602567874071  1.0000
  H   H16       1.0  0.8400489819161479  0.47206274087859185  0.1803980728102487  1.0000
  H   H17       1.0  0.3297791993336361  0.9122569391426157  0.25711422965110836  1.0000
  H   H18       1.0  0.6702209590281355  0.08774614866996443  0.7428837465716213  1.0000
  H   H19       1.0  0.5347791785573648  0.9153215418579136  0.0878565638484403  1.0000
  H   H20       1.0  0.46522315625352195  0.08468059125850398  0.912138071724037  1.0000
  H   H21       1.0  0.5585530306852745  0.7505290598604475  0.9863739341310664  1.0000
  H   H22       1.0  0.44144520281001576  0.24947203368418516  0.013621950527145505  1.0000
  H   H23       1.0  0.38456703529212893  0.5661362598089286  0.05623009847684554  1.0000
  H   H24       1.0  0.6154310553334026  0.4338617817432679  0.9437689577740187  1.0000
  H   H25       1.0  0.9758589874274648  0.5390286049025051  0.40420941378225445  1.0000
  H   H26       1.0  0.024140017440586786  0.46097243098044083  0.5957917025130186  1.0000
  H   H27       1.0  0.1578890023073214  0.28095235424909504  0.7616641871957343  1.0000
  H   H28       1.0  0.8421181939954608  0.7190467382852149  0.23833474889674017  1.0000
  H   H29       1.0  0.16071376315746727  0.032133472931583584  0.851782871137445  1.0000
  H   H30       1.0  0.8392862999578057  0.9678675802193698  0.14821721948039368  1.0000
  H   H31       1.0  0.16835942351517016  0.9281011955088805  0.05130880325776124  1.0000
  H   H32       1.0  0.8316344217900562  0.0718987835342872  0.9486945878006665  1.0000
  H   H33       1.0  0.17029948124394415  0.07054131193743271  0.1708311006374146  1.0000
  H   H34       1.0  0.8296923910040731  0.9294586700345635  0.8291712131186344  1.0000
  H   H35       1.0  0.16824442502311845  0.5732780591292866  0.9978934934862522  1.0000
  H   H36       1.0  0.8317525585969887  0.4267249768792782  0.0021075597687741387  1.0000
  H   H37       1.0  0.8471292608603135  0.9604686423716803  0.3740587838496125  1.0000
  H   H38       1.0  0.15287194455221706  0.0395304402167156  0.6259384846643385  1.0000
  H   H39       1.0  0.4346614745247804  0.9464452090935328  0.3707225325930849  1.0000
  H   H40       1.0  0.5653416563217063  0.053552853235217406  0.6292768704208029  1.0000
  H   H41       1.0  0.6323500345064303  0.3277687162472916  0.2826947469929734  1.0000
  H   H42       1.0  0.36764994569375625  0.6722282956790481  0.7173072259221415  1.0000
  C   C1        1.0  0.2577434245954251  0.6373206410125151  0.19531759421684566  1.0000
  C   C2        1.0  0.742254677794058  0.36267840850428007  0.8046811870007815  1.0000
  C   C3        1.0  0.24252644672476004  0.7359223820535875  0.250425320853978  1.0000
  C   C4        1.0  0.7574747822156594  0.2640787164640059  0.7495713975934848  1.0000
  C   C5        1.0  0.34091307120863945  0.8374480875411127  0.21404636421604545  1.0000
  C   C6        1.0  0.6590891442603777  0.1625530095120667  0.7859508928826173  1.0000
  C   C7        1.0  0.45454133445109335  0.8389562195666899  0.11882826786535361  1.0000
  C   C8        1.0  0.5454607151877653  0.16103679503724785  0.8811727538278689  1.0000
  C   C9        1.0  0.4685027278230365  0.744119392685626  0.06110760855136022  1.0000
  C   C10       1.0  0.5314953146117742  0.25588064606334643  0.9388924619616503  1.0000
  C   C11       1.0  0.37126652321711606  0.641854523130455  0.09854437209184397  1.0000
  C   C12       1.0  0.6287356322972357  0.3581475631549012  0.9014541743021951  1.0000
  C   C13       1.0  0.06974496472594179  0.5889460401744061  0.3403389673124692  1.0000
  C   C14       1.0  0.9302541589164972  0.41105904629937845  0.6596594845212068  1.0000
  C   C15       1.0  0.1662453873123084  0.25556723531303766  0.03206024175719341  1.0000
  C   C16       1.0  0.8337546164157672  0.7444317925424999  0.9679411810914402  1.0000
  C   C17       1.0  0.16290016122466972  0.314503638925352  0.9171659376837837  1.0000
  C   C18       1.0  0.8371018990431763  0.6854964126983848  0.08283472310537116  1.0000
  C   C19       1.0  0.16037762670459438  0.23626278420499608  0.8498987955009909  1.0000
  C   C20       1.0  0.8396254918104731  0.7637372846867411  0.15010083961072226  1.0000
  C   C21       1.0  0.16251403841719989  0.0970076575787573  0.9010855283788075  1.0000
  C   C22       1.0  0.8374860129341215  0.9029923876075896  0.09891483727226814  1.0000
  C   C23       1.0  0.16653645013863638  0.037610532038293315  0.015201761557690896  1.0000
  C   C24       1.0  0.8334615088136059  0.9623884800136582  0.9848001483171843  1.0000
  C   C25       1.0  0.1678592803576535  0.1153843530552479  0.0825520894832579  1.0000
  C   C26       1.0  0.8321335907503881  0.8846136208893398  0.9174505308261516  1.0000
  C   C27       1.0  0.1679735343381452  0.47332212399247464  0.9914333180083901  1.0000
  C   C28       1.0  0.8320245321920225  0.5266769161581167  0.008566245373543785  1.0000
  C   C29       1.0  0.7508157688827454  0.15106625162312076  0.32994454863615624  1.0000
  C   C30       1.0  0.2491863278118912  0.8489307948392266  0.6700553729240966  1.0000
  C   C31       1.0  0.7536615849223267  0.010412778664758107  0.3626877053003028  1.0000
  C   C32       1.0  0.24634051233978477  0.9895812532699966  0.6373122591953617  1.0000
  C   C33       1.0  0.6397751578398783  0.9363127080463943  0.3788416959189717  1.0000
  C   C34       1.0  0.3602249293707586  0.0636873465061711  0.6211578875677972  1.0000
  C   C35       1.0  0.5236974220441724  0.004220994372083502  0.3575927679973177  1.0000
  C   C36       1.0  0.4763026769304092  0.9957800681450806  0.6424065404562072  1.0000
  C   C37       1.0  0.521174753248914  0.14504661092620105  0.3204237024864653  1.0000
  C   C38       1.0  0.4788262487717103  0.8549534234295278  0.6795779839801172  1.0000
  C   C39       1.0  0.6343778254578679  0.21828849405810766  0.308579819762798  1.0000
  C   C40       1.0  0.36562328414068196  0.7817115683962543  0.6914195202108501  1.0000
  C   C41       1.0  0.8740376801927782  0.22571750632996412  0.31753238797916344  1.0000
  C   C42       1.0  0.12596127705202056  0.7742825122221719  0.6824697855136606  1.0000
  C   C43       1.0  0.6409919469002786  0.7854921920976282  0.416864094545204  1.0000
  C   C44       1.0  0.3590091033110809  0.2145058450613107  0.5831365776592392  1.0000
  C   C45       1.0  0.3966175520988244  0.2151418054345911  0.29525977320155045  1.0000
  C   C46       1.0  0.6033845798876384  0.7848582649215601  0.7047393232589698  1.0000
  N   N1        1.0  0.14774804783267106  0.546155345762408  0.25485646834576403  1.0000
  N   N2        1.0  0.8522500181300217  0.45384670891576945  0.7451430521007579  1.0000
  N   N3        1.0  0.1209469915925965  0.7019926640437577  0.340657072764678  1.0000
  N   N4        1.0  0.8790511219933493  0.2980104079652365  0.6593413904842933  1.0000
  N   N5        1.0  0.1697101812012534  0.3584033926811828  0.07579204468667199  1.0000
  N   N6        1.0  0.8302836999632817  0.6415965957281883  0.9242105642074421  1.0000
  N   N7        1.0  0.16417744371079118  0.45245821901824  0.8951605369309165  1.0000
  N   N8        1.0  0.8358257106635848  0.5475418592397078  0.10483831601649027  1.0000
  O   O1        1.0  0.8706130836037999  0.3541418595166449  0.29525359091810793  1.0000
  O   O2        1.0  0.12938698007894797  0.6458561791067157  0.7047465426351425  1.0000
  O   O3        1.0  0.9798764162127539  0.15788813424092754  0.3284891182334632  1.0000
  O   O4        1.0  0.020122660373907298  0.8421129203744401  0.6715104337331822  1.0000
  O   O5        1.0  0.7497429630132117  0.7253885965155151  0.4335902615189724  1.0000
  O   O6        1.0  0.25025710066953616  0.2746094421078453  0.566409872034278  1.0000
  O   O7        1.0  0.5335654509900962  0.7261842184258074  0.4288175583095822  1.0000
  O   O8        1.0  0.46643460036123235  0.27381582676054717  0.5711828073414936  1.0000
  O   O9        1.0  0.3018088677571598  0.14498519561736603  0.2967013123254105  1.0000
  O   O10       1.0  0.6981912670767301  0.8550158762660162  0.7032972139638075  1.0000
  O   O11       1.0  0.3875440852341113  0.34287996323259773  0.27326148406487494  1.0000
  O   O12       1.0  0.6124569526458217  0.6571200804893423  0.7267394202373936  1.0000
  O   O13       1.0  0.07098333278494809  0.23365360443722247  0.4799947537976196  1.0000
  O   O14       1.0  0.9290177527182307  0.7663474566155275  0.5200050933070983  1.0000
  O   O15       1.0  0.7354108378453929  0.4638570179928864  0.46729894710243514  1.0000
  O   O16       1.0  0.264591245950335  0.536145049560048  0.5327011636202313  1.0000
  O   O17       1.0  0.5222127368150921  0.5186692657751806  0.3083761199369306  1.0000
  O   O18       1.0  0.4777872663455084  0.4813327766079498  0.6916252599762912  1.0000
