data_image0
_chemical_formula_structural       Al4H12C16O20
_chemical_formula_sum              "Al4 H12 C16 O20"
_cell_length_a       6.689507123727631
_cell_length_b       11.09421726671217
_cell_length_c       13.167642956064753
_cell_angle_alpha    89.9998506253202
_cell_angle_beta     90.00034638528535
_cell_angle_gamma    101.39892552117144

_space_group_name_H-M_alt    "P 1"
_space_group_IT_number       1

loop_
  _space_group_symop_operation_xyz
  'x, y, z'

loop_
  _atom_site_type_symbol
  _atom_site_label
  _atom_site_symmetry_multiplicity
  _atom_site_fract_x
  _atom_site_fract_y
  _atom_site_fract_z
  _atom_site_occupancy
  Al  Al1       1.0  0.5000045942712176  9.533489901500645e-06  0.49999456356284366  1.0000
  Al  Al2       1.0  0.9999937459922348  0.499989091674081  3.9256496436e-06  1.0000
  Al  Al3       1.0  1.62865245983e-05  5.6095524315000005e-06  0.4999953311485755  1.0000
  Al  Al4       1.0  0.4999886261760196  0.49999006086618186  0.9999983932155345  1.0000
  H   H1        1.0  0.5165201555936463  0.7465175997471151  0.7592382454400449  1.0000
  H   H2        1.0  0.9834959583346431  0.7534752365962092  0.2592428480060605  1.0000
  H   H3        1.0  0.483493453446627  0.253483818583824  0.2407595249465189  1.0000
  H   H4        1.0  0.01650812198482753  0.24653676248792075  0.7407534034784504  1.0000
  H   H5        1.0  0.982250282879754  0.7613884841751785  0.7463208974851483  1.0000
  H   H6        1.0  0.5177785891628657  0.7386148461302398  0.2463226181154496  1.0000
  H   H7        1.0  0.01776073137564541  0.23861466143394236  0.2536837078316267  1.0000
  H   H8        1.0  0.4822395716220029  0.26138036391525793  0.7536812277844618  1.0000
  H   H9        1.0  0.19846908823627282  0.8403843657010133  0.48077171769320154  1.0000
  H   H10       1.0  0.30153519059575734  0.6596180852048409  0.9807659070626257  1.0000
  H   H11       1.0  0.8015203814594755  0.15960981332472812  0.5192389631011025  1.0000
  H   H12       1.0  0.6984859472020729  0.3403899755201892  0.0192303444523674  1.0000
  C   C1        1.0  0.7003037903676272  0.856621696194978  0.6407790685513318  1.0000
  C   C2        1.0  0.7996977914193834  0.6433662738208243  0.1407841489595683  1.0000
  C   C3        1.0  0.2996904436573685  0.1433671924576956  0.3592270556324806  1.0000
  C   C4        1.0  0.200313648134383  0.35663870759844235  0.8592212157929495  1.0000
  C   C5        1.0  0.6717744699067155  0.7738383381303606  0.7304466559581257  1.0000
  C   C6        1.0  0.8281947288412893  0.7261474011031696  0.23044174581586674  1.0000
  C   C7        1.0  0.3282145744773075  0.2261540050867553  0.2695609870883544  1.0000
  C   C8        1.0  0.1717636889533836  0.2738420210362379  0.7695476706915585  1.0000
  C   C9        1.0  0.8268096533373568  0.7335931751832309  0.7748292171353981  1.0000
  C   C10       1.0  0.6731552366352317  0.7664169087101202  0.2748199448920516  1.0000
  C   C11       1.0  0.17318623880638737  0.266415798858077  0.2251776664635727  1.0000
  C   C12       1.0  0.3267994800204973  0.2335823933339967  0.7251664338482228  1.0000
  C   C13       1.0  0.7955951505348651  0.6489474144215637  0.8631670279802748  1.0000
  C   C14       1.0  0.704389810829383  0.8510477617176024  0.363176627390672  1.0000
  C   C15       1.0  0.2044057615485713  0.35104444501652676  0.1368185914012017  1.0000
  C   C16       1.0  0.29560244476751046  0.14895197900855814  0.6368272184647452  1.0000
  O   O1        1.0  0.8775564440092861  0.8836269829599815  0.6016538483589926  1.0000
  O   O2        1.0  0.6224635858613538  0.6163844750272178  0.1016508681082016  1.0000
  O   O3        1.0  0.1224504868968879  0.11637146459411704  0.3983515163947828  1.0000
  O   O4        1.0  0.37756639968170447  0.3836229933722066  0.8983514589196844  1.0000
  O   O5        1.0  0.5406397472883596  0.8923476274132937  0.6100952370691175  1.0000
  O   O6        1.0  0.959345736292782  0.6076370869980394  0.11009480963465282  1.0000
  O   O7        1.0  0.4593592080311949  0.1076487130098656  0.3899108871126273  1.0000
  O   O8        1.0  0.04065060262217204  0.39236735178668186  0.8899029607222388  1.0000
  O   O9        1.0  0.9558277140766053  0.62063324911221  0.901139930982758  1.0000
  O   O10       1.0  0.5441500773647974  0.8793807185118399  0.4011315121399335  1.0000
  O   O11       1.0  0.04417332461110847  0.3793850125152715  0.0988593582389257  1.0000
  O   O12       1.0  0.4558212715688227  0.12061280935194672  0.5988708148169906  1.0000
  O   O13       1.0  0.6138237551775987  0.6109758319739315  0.894371323203508  1.0000
  O   O14       1.0  0.8861818190217149  0.8890291329571414  0.394366186784751  1.0000
  O   O15       1.0  0.3861820694234693  0.38903076820114524  0.1056325226638606  1.0000
  O   O16       1.0  0.11382145377575628  0.11096645235862469  0.605630824156087  1.0000
  O   O17       1.0  0.2259781274788892  0.9261038860244853  0.5005367703643699  1.0000
  O   O18       1.0  0.2740218200622592  0.573898338978232  0.0005351095088955  1.0000
  O   O19       1.0  0.773977886664973  0.07389455236969412  0.4994625188140276  1.0000
  O   O20       1.0  0.7260211180391777  0.4261068640848862  0.9994611420423638  1.0000
