data_image0
_chemical_formula_structural       Ag8H40C40N24O20
_chemical_formula_sum              "Ag8 H40 C40 N24 O20"
_cell_length_a       7.052224546019184
_cell_length_b       12.632820109753295
_cell_length_c       15.172851295600882
_cell_angle_alpha    93.3903307893786
_cell_angle_beta     90.00009311779219
_cell_angle_gamma    90.00024627796303

_space_group_name_H-M_alt    "P 1"
_space_group_IT_number       1

loop_
  _space_group_symop_operation_xyz
  'x, y, z'

loop_
  _atom_site_type_symbol
  _atom_site_label
  _atom_site_symmetry_multiplicity
  _atom_site_fract_x
  _atom_site_fract_y
  _atom_site_fract_z
  _atom_site_occupancy
  Ag  Ag1       1.0  0.26302973985791306  0.6525412678861996  0.5691307026154961  1.0000
  Ag  Ag2       1.0  0.7630274361122388  0.34745761922172147  0.9308698432942963  1.0000
  Ag  Ag3       1.0  0.736973803843824  0.3474576148844264  0.4308702045176603  1.0000
  Ag  Ag4       1.0  0.23697185361471176  0.6525420653905486  0.06913045170194473  1.0000
  Ag  Ag5       1.0  0.2392676813140042  0.859715012297208  0.4825241375300068  1.0000
  Ag  Ag6       1.0  0.7392694351737743  0.1402862326714427  0.017478589412512204  1.0000
  Ag  Ag7       1.0  0.7607301904239491  0.1402846455525193  0.5174781332385692  1.0000
  Ag  Ag8       1.0  0.2607341085374486  0.8597150288788741  0.9825224570885285  1.0000
  H   H1        1.0  0.1091870791595326  0.6118418725162444  0.414757188517669  1.0000
  H   H2        1.0  0.6091824847907217  0.38815749596808774  0.08524335425842373  1.0000
  H   H3        1.0  0.8908193005258125  0.3881561994907443  0.5852449893427618  1.0000
  H   H4        1.0  0.3908168049393907  0.611842981570746  0.9147569871937764  1.0000
  H   H5        1.0  0.8804924766601587  0.5939085566254791  0.3610238483709338  1.0000
  H   H6        1.0  0.3804845971723551  0.4060922756609601  0.13897632311934421  1.0000
  H   H7        1.0  0.11951248503606138  0.4060903083063394  0.6389783759448309  1.0000
  H   H8        1.0  0.6195118565720816  0.5939082107946803  0.8610233597406067  1.0000
  H   H9        1.0  0.0861901825436249  0.9023470298474905  0.6422368775516107  1.0000
  H   H10       1.0  0.5861871036579557  0.09765147038918798  0.8577602184140292  1.0000
  H   H11       1.0  0.9138076891847148  0.09765106890992571  0.35776332453207266  1.0000
  H   H12       1.0  0.41381076807121525  0.9023482588226986  0.14223678362664322  1.0000
  H   H13       1.0  0.863089896748569  0.9228584096228618  0.6976483449057727  1.0000
  H   H14       1.0  0.363085694453602  0.07714236099472059  0.8023484311973166  1.0000
  H   H15       1.0  0.1369108109716279  0.0771420857582399  0.3023506793650768  1.0000
  H   H16       1.0  0.6369135952699165  0.922858170065723  0.19764795870895574  1.0000
  H   H17       1.0  0.9376454643347781  0.6488617159704121  0.7069805630623024  1.0000
  H   H18       1.0  0.4376447775824274  0.35113521840551  0.793019998494984  1.0000
  H   H19       1.0  0.0623580793712222  0.35113795080651045  0.2930210491177975  1.0000
  H   H20       1.0  0.562354512147678  0.6488652591333234  0.2069803429572161  1.0000
  H   H21       1.0  0.5844150418973157  0.6402188392251633  0.7054445274259252  1.0000
  H   H22       1.0  0.08441584559377449  0.35977724222431107  0.7945550619616315  1.0000
  H   H23       1.0  0.4155856658378596  0.359783990334279  0.29455792916775186  1.0000
  H   H24       1.0  0.9155862801166421  0.6402224513116866  0.20544457444487563  1.0000
  H   H25       1.0  0.5579598285647974  0.8653246857896945  0.353069491395118  1.0000
  H   H26       1.0  0.057962628760954295  0.1346745577140567  0.14693100590739763  1.0000
  H   H27       1.0  0.44203378920455794  0.1346781794421759  0.6469303308314593  1.0000
  H   H28       1.0  0.942042332936225  0.8653251179848597  0.8530699476823502  1.0000
  H   H29       1.0  0.9177867054090283  0.8634456229078609  0.3518074043194447  1.0000
  H   H30       1.0  0.41779236054343016  0.13655693084392342  0.14818960024167893  1.0000
  H   H31       1.0  0.0822097483311524  0.13655407954148302  0.6481915734935626  1.0000
  H   H32       1.0  0.5822168551333746  0.86344599684886  0.851805611854907  1.0000
  H   H33       1.0  0.2954222202146468  0.7278447472022692  0.32026302923094374  1.0000
  H   H34       1.0  0.7954213032473374  0.2721550756825266  0.179737678876549  1.0000
  H   H35       1.0  0.7045784875045837  0.27215493741173447  0.6797372657659224  1.0000
  H   H36       1.0  0.2045794044698255  0.7278438070846391  0.8202632282553497  1.0000
  H   H37       1.0  0.21885370366729257  0.816084840410582  0.2551152736567914  1.0000
  H   H38       1.0  0.7188537429420592  0.183913218722644  0.24488461497471556  1.0000
  H   H39       1.0  0.7811427500730159  0.1839140423513967  0.7448856334732172  1.0000
  H   H40       1.0  0.28114838276313486  0.8160848800399592  0.755115587110865  1.0000
  C   C1        1.0  0.661448440720484  0.619417352769702  0.49078244283302314  1.0000
  C   C2        1.0  0.16144558854679758  0.3805813681434743  0.009216782700797004  1.0000
  C   C3        1.0  0.3385551029812532  0.38058153000093153  0.5092184643001332  1.0000
  C   C4        1.0  0.8385522831878658  0.619418316467069  0.9907835122948188  1.0000
  C   C5        1.0  0.8659910007640192  0.621660480314823  0.49087834716765866  1.0000
  C   C6        1.0  0.3659881308268069  0.37833792889555445  0.009122330674301802  1.0000
  C   C7        1.0  0.1340125429345562  0.37833760952923984  0.5091225135095314  1.0000
  C   C8        1.0  0.6340111589023323  0.6216617378761811  0.9908792815039151  1.0000
  C   C9        1.0  0.8611219596062012  0.642245149326108  0.6445689745325967  1.0000
  C   C10       1.0  0.3611201210043831  0.3577555540508969  0.8554324099614238  1.0000
  C   C11       1.0  0.1388830020952412  0.35775531037910463  0.3554326841040948  1.0000
  C   C12       1.0  0.6388791687257225  0.6422449234879365  0.14456793149077643  1.0000
  C   C13       1.0  0.6649824113922517  0.6373667088925289  0.6443503131377784  1.0000
  C   C14       1.0  0.16498344743254725  0.36263114606678226  0.8556500992762681  1.0000
  C   C15       1.0  0.33502113232542996  0.36263531882354266  0.35565275559218185  1.0000
  C   C16       1.0  0.8350172602824201  0.637367754540925  0.1443494906736547  1.0000
  C   C17       1.0  0.5489092947251635  0.6090023171786997  0.4048525849085039  1.0000
  C   C18       1.0  0.048906819107941084  0.3909977417640819  0.09514465785809283  1.0000
  C   C19       1.0  0.45109141299626276  0.39099734959476257  0.5951490272703384  1.0000
  C   C20       1.0  0.9510896346311383  0.6090019696055364  0.904853661363923  1.0000
  C   C21       1.0  0.6418327792618682  0.8707958993205268  0.4133911590785929  1.0000
  C   C22       1.0  0.14183391144311489  0.1292075491370781  0.08660701059702802  1.0000
  C   C23       1.0  0.3581636744920543  0.1292069659148041  0.5866086631492422  1.0000
  C   C24       1.0  0.8581682142723961  0.8707945588596858  0.9133901308134116  1.0000
  C   C25       1.0  0.8382559007690346  0.8692193777790821  0.4135644898077899  1.0000
  C   C26       1.0  0.3382584625841074  0.13078060314166612  0.08643230478081423  1.0000
  C   C27       1.0  0.16174197096342624  0.13078032467199563  0.5864344880058425  1.0000
  C   C28       1.0  0.6617436631260462  0.8692207297690758  0.9135634729916904  1.0000
  C   C29       1.0  0.6376684534763726  0.8843707308178709  0.5673427312959944  1.0000
  C   C30       1.0  0.1376664165883383  0.11563103996758882  0.932656571966618  1.0000
  C   C31       1.0  0.36232800026915857  0.11562974671750233  0.4326576101549478  1.0000
  C   C32       1.0  0.8623342911329598  0.8843694464932457  0.06734311089522291  1.0000
  C   C33       1.0  0.842354242013158  0.8894831941137228  0.5675091954379071  1.0000
  C   C34       1.0  0.342357836774184  0.1105159043861548  0.9324901037126525  1.0000
  C   C35       1.0  0.1576407937295059  0.11051491356050046  0.432490348053534  1.0000
  C   C36       1.0  0.6576428709438176  0.8894846088354883  0.06750760337622812  1.0000
  C   C37       1.0  0.5262569530117885  0.8859316088526941  0.6529930169097896  1.0000
  C   C38       1.0  0.0262489374034871  0.11407461197033802  0.8470091005446181  1.0000
  C   C39       1.0  0.47374375472764285  0.11407200471303724  0.34701014473083813  1.0000
  C   C40       1.0  0.9737475163600562  0.8859298123573113  0.1529927903681028  1.0000
  N   N1        1.0  0.5685516811665534  0.6289226597444397  0.5675769986837481  1.0000
  N   N2        1.0  0.0685502109541147  0.37107416700346363  0.9324232816670918  1.0000
  N   N3        1.0  0.431450444551416  0.37107779103704525  0.43242531854267713  1.0000
  N   N4        1.0  0.9314490787696668  0.6289247246822429  0.0675769668731832  1.0000
  N   N5        1.0  0.9610902641664012  0.6366229533711375  0.5691632831006999  1.0000
  N   N6        1.0  0.46108872865544  0.363376425906772  0.9308367800461641  1.0000
  N   N7        1.0  0.0389146975192389  0.36337354170126457  0.43083814325618874  1.0000
  N   N8        1.0  0.5389105610756316  0.6366248623991594  0.06916229068001911  1.0000
  N   N9        1.0  0.9639003644764513  0.6118030213321505  0.415710945332542  1.0000
  N   N10       1.0  0.4638964117466173  0.38819561784614376  0.08429047801870843  1.0000
  N   N11       1.0  0.036103179215935186  0.38819266297142013  0.5842917517497315  1.0000
  N   N12       1.0  0.536100041985179  0.6118016969032497  0.9157090190173991  1.0000
  N   N13       1.0  0.545488858818409  0.8746411675274929  0.4903906219195379  1.0000
  N   N14       1.0  0.0454911142193382  0.12536042432730451  0.009610003679547702  1.0000
  N   N15       1.0  0.4545090129203757  0.12536012077671194  0.50960844880602  1.0000
  N   N16       1.0  0.954511011482694  0.8746368815087352  0.9903901519500737  1.0000
  N   N17       1.0  0.937579327127487  0.8760979800655879  0.489148664820867  1.0000
  N   N18       1.0  0.4375773214911972  0.1239022253487292  0.0108495351217996  1.0000
  N   N19       1.0  0.062418544608270586  0.12390169562468152  0.5108522887657331  1.0000
  N   N20       1.0  0.5624219682302608  0.876097503864884  0.989147466919498  1.0000
  N   N21       1.0  0.9411856508878883  0.9034735250514104  0.6420474589426705  1.0000
  N   N22       1.0  0.44118037252720643  0.09652346255796831  0.8579498128004346  1.0000
  N   N23       1.0  0.058816474813042384  0.09652378970489651  0.35795203809595944  1.0000
  N   N24       1.0  0.5588174991945464  0.9034746897210655  0.1420464377373278  1.0000
  O   O1        1.0  0.3720658904121377  0.6294215151195389  0.4084532849320014  1.0000
  O   O2        1.0  0.872062599087073  0.37057929661243366  0.09154687907963681  1.0000
  O   O3        1.0  0.6279333993233321  0.37057973750531664  0.5915484201581408  1.0000
  O   O4        1.0  0.1279310186623448  0.6294180002929578  0.908453935137189  1.0000
  O   O5        1.0  0.6389558308384621  0.5811617881414435  0.33521415611599553  1.0000
  O   O6        1.0  0.13895239319943187  0.41884162653029483  0.16478598677655756  1.0000
  O   O7        1.0  0.36104913087260126  0.4188402306560874  0.6647895712055814  1.0000
  O   O8        1.0  0.8610426425484617  0.5811580759173225  0.8352129910358175  1.0000
  O   O9        1.0  0.3573313796146493  0.8479446083592778  0.6501860344066162  1.0000
  O   O10       1.0  0.8573286962541432  0.15205766270089782  0.8498160982248708  1.0000
  O   O11       1.0  0.6426664921327897  0.15205742827014035  0.3498163757298444  1.0000
  O   O12       1.0  0.1426691754827161  0.8479420040691039  0.1501855139527208  1.0000
  O   O13       1.0  0.6084000906264819  0.9230743455360653  0.7216987746136426  1.0000
  O   O14       1.0  0.10838729598106062  0.07692974152421783  0.7782999834381813  1.0000
  O   O15       1.0  0.39160345308789596  0.07692770894081488  0.2783023183433572  1.0000
  O   O16       1.0  0.891611993763618  0.9230755292550655  0.22169800238583556  1.0000
  O   O17       1.0  0.2741384400537612  0.8037226178815402  0.3139590681671366  1.0000
  O   O18       1.0  0.774148298940375  0.19627554047207244  0.18604350391156294  1.0000
  O   O19       1.0  0.7258523417216691  0.19627704887981423  0.6860425440073075  1.0000
  O   O20       1.0  0.22585382676481905  0.8037225582905311  0.8139566981740105  1.0000
