data_image0
_chemical_formula_structural       Zn2H60C60N16O12
_chemical_formula_sum              "Zn2 H60 C60 N16 O12"
_cell_length_a       9.016354753097
_cell_length_b       13.481495658359622
_cell_length_c       13.093751487568413
_cell_angle_alpha    81.52715161647384
_cell_angle_beta     69.84933791123409
_cell_angle_gamma    70.45535542728355

_space_group_name_H-M_alt    "P 1"
_space_group_IT_number       1

loop_
  _space_group_symop_operation_xyz
  'x, y, z'

loop_
  _atom_site_type_symbol
  _atom_site_label
  _atom_site_symmetry_multiplicity
  _atom_site_fract_x
  _atom_site_fract_y
  _atom_site_fract_z
  _atom_site_occupancy
  Zn  Zn1       1.0  0.9384263207116561  0.25008264894686505  0.2503519136169459  1.0000
  Zn  Zn2       1.0  0.06157166581397856  0.7499155806682795  0.7496485367789562  1.0000
  H   H1        1.0  0.08554460889570224  0.3538443558486648  0.351802968649011  1.0000
  H   H2        1.0  0.2913014193010426  0.14665333252764157  0.1490758406917223  1.0000
  H   H3        1.0  0.9144556376949281  0.6461515333183244  0.6481999737091043  1.0000
  H   H4        1.0  0.7087045663366848  0.853349614968977  0.8509236243554456  1.0000
  H   H5        1.0  0.1731783492328843  0.3385557460487546  0.2258824597275151  1.0000
  H   H6        1.0  0.2376778582584648  0.1621278358085192  0.2750027756537889  1.0000
  H   H7        1.0  0.8268149440713225  0.6614472208698459  0.7741190031177396  1.0000
  H   H8        1.0  0.7623206710869324  0.8378727520216671  0.724997086615275  1.0000
  H   H9        1.0  0.34299544005141736  0.1988654525599003  0.8643863339839228  1.0000
  H   H10       1.0  0.9066231693267136  0.3008530242088625  0.6359243966386074  1.0000
  H   H11       1.0  0.6569905990201336  0.8011344235084293  0.13562155990840094  1.0000
  H   H12       1.0  0.09338084036924224  0.6991498320725428  0.3640653598165429  1.0000
  H   H13       1.0  0.37545867033024644  0.0805862813283014  0.5665058131122295  1.0000
  H   H14       1.0  0.522520794318886  0.4193917585908907  0.9336550178455028  1.0000
  H   H15       1.0  0.6245403160359326  0.9194127778855831  0.4334990734356907  1.0000
  H   H16       1.0  0.4774882783268167  0.5806087750092389  0.06633913440721523  1.0000
  H   H17       1.0  0.21076148857034116  0.3597272303227187  0.044958376666258466  1.0000
  H   H18       1.0  0.11518771665580357  0.14023589983919751  0.4554467891658406  1.0000
  H   H19       1.0  0.7892465711472518  0.6402654607243081  0.9550396714138287  1.0000
  H   H20       1.0  0.8848043287630668  0.8597560026301567  0.5445511047158362  1.0000
  H   H21       1.0  0.17749662738761876  0.4127533011377409  0.6177423454961968  1.0000
  H   H22       1.0  0.707575904347962  0.08723961114449001  0.8825910529196719  1.0000
  H   H23       1.0  0.8225096950808605  0.5872481079010826  0.3822610968321101  1.0000
  H   H24       1.0  0.29242908144922797  0.9127625067533884  0.11740397597547772  1.0000
  H   H25       1.0  0.3099679668376747  0.4147136420891827  0.842535384063318  1.0000
  H   H26       1.0  0.06723411353182467  0.08501270018666672  0.6578478350887451  1.0000
  H   H27       1.0  0.6900334472621311  0.5852862224825587  0.15747136886855626  1.0000
  H   H28       1.0  0.9327621374320927  0.9149854578962502  0.3421450007105804  1.0000
  H   H29       1.0  0.14584096335573055  0.48167518606901893  0.7874416038079347  1.0000
  H   H30       1.0  0.9149041074744627  0.0181468482346077  0.7129946342881368  1.0000
  H   H31       1.0  0.8541643446911491  0.5183262104865207  0.21256050591011183  1.0000
  H   H32       1.0  0.08509296108029198  0.9818498107564722  0.28700636678320285  1.0000
  H   H33       1.0  0.5246744710073512  0.9668758644259868  0.7054943394683592  1.0000
  H   H34       1.0  0.6973625746481387  0.5329273527613979  0.7947208946528549  1.0000
  H   H35       1.0  0.47532054870033824  0.0331247889271324  0.2945124707197165  1.0000
  H   H36       1.0  0.30264747409879067  0.46707244245520496  0.20527853003986954  1.0000
  H   H37       1.0  0.4581471519511876  0.016432173389866002  0.8379803171887589  1.0000
  H   H38       1.0  0.8132639424983379  0.48325099127447413  0.6622935693271188  1.0000
  H   H39       1.0  0.5418465746344904  0.9835676969301659  0.1620270062233401  1.0000
  H   H40       1.0  0.18674372599358668  0.516751134548798  0.3377023164056753  1.0000
  H   H41       1.0  0.9044352017293273  0.37891162475200707  0.8560374797327768  1.0000
  H   H42       1.0  0.639341009435  0.12072730418539382  0.6446607450316079  1.0000
  H   H43       1.0  0.09555101267562069  0.6211016122898628  0.1439668273974348  1.0000
  H   H44       1.0  0.36065169899364913  0.8792669663404882  0.35533760772094786  1.0000
  H   H45       1.0  0.7722439868776829  0.2989071228346489  0.0620652801431517  1.0000
  H   H46       1.0  0.6325428967856721  0.2013439289638654  0.4388908005561801  1.0000
  H   H47       1.0  0.22774453507086834  0.7011069097235919  0.9379398463732899  1.0000
  H   H48       1.0  0.3674511139232305  0.7986535096928052  0.5611093062261077  1.0000
  H   H49       1.0  0.4093998243447031  0.8336423626116697  0.7004242623711718  1.0000
  H   H50       1.0  0.44431365472247103  0.6665482815624769  0.7990735253377393  1.0000
  H   H51       1.0  0.5905947858208193  0.16636295532227052  0.2995758509620785  1.0000
  H   H52       1.0  0.5556868085088948  0.33344605930523125  0.20093234730379086  1.0000
  H   H53       1.0  0.08943091511171242  0.0823917926282078  0.9085862361493326  1.0000
  H   H54       1.0  0.581042177407937  0.4171640590899131  0.5918094563509156  1.0000
  H   H55       1.0  0.9105607826307748  0.9176080527252495  0.09141842204223846  1.0000
  H   H56       1.0  0.4189703848715991  0.5828404283158903  0.4081862223200615  1.0000
  H   H57       1.0  0.9182146038417675  0.9428955085049752  0.9127515603331985  1.0000
  H   H58       1.0  0.2747837504154233  0.5567786848672327  0.5871632558292532  1.0000
  H   H59       1.0  0.08177719428076095  0.0571074065643771  0.0872443819109208  1.0000
  H   H60       1.0  0.7252262256201051  0.4432242364724103  0.41283344928978494  1.0000
  C   C1        1.0  0.2438198028923395  0.2656665984644135  0.4717308581973684  1.0000
  C   C2        1.0  0.48113999383942024  0.2344487291519854  0.028621617951152672  1.0000
  C   C3        1.0  0.7561776989438868  0.734326963928112  0.5282760034408155  1.0000
  C   C4        1.0  0.5188740544635585  0.765553425005358  0.9713773140671976  1.0000
  C   C5        1.0  0.3251540097031477  0.2136562704661245  0.7843613708120715  1.0000
  C   C6        1.0  0.8233710543398086  0.2861553255010704  0.7159322725596694  1.0000
  C   C7        1.0  0.6748366681949207  0.786346764617207  0.2156473255647525  1.0000
  C   C8        1.0  0.17663353798976508  0.7138428097923678  0.2840581843765478  1.0000
  C   C9        1.0  0.2611183993302571  0.31700421826863584  0.7470597483830873  1.0000
  C   C10       1.0  0.8251346298065767  0.1828542206813495  0.7532771972413813  1.0000
  C   C11       1.0  0.7388792303607443  0.6829995691329032  0.2529451990689466  1.0000
  C   C12       1.0  0.17486669719465192  0.817148627674669  0.2467117023761247  1.0000
  C   C13       1.0  0.34220764782661905  0.1463177498442647  0.6182321497319734  1.0000
  C   C14       1.0  0.6067408217119377  0.353647530629573  0.881930889861266  1.0000
  C   C15       1.0  0.6577880257325995  0.8536828864676667  0.38177285207321177  1.0000
  C   C16       1.0  0.39326939096819286  0.6463498230821757  0.11806027120392316  1.0000
  C   C17       1.0  0.27795822267520964  0.2486225339722807  0.5798454919701258  1.0000
  C   C18       1.0  0.606196576734099  0.2513961050379195  0.9203700607206144  1.0000
  C   C19       1.0  0.7220398694593867  0.7513765225997986  0.42015910896525094  1.0000
  C   C20       1.0  0.3938070049093125  0.7486076050830947  0.0796267016546181  1.0000
  C   C21       1.0  0.10737969825784427  0.3541275989612842  0.023902541331573005  1.0000
  C   C22       1.0  0.9850998107980544  0.1458638471549989  0.47661697628060307  1.0000
  C   C23       1.0  0.8926225190456372  0.6458706241798639  0.9760972431316334  1.0000
  C   C24       1.0  0.014899514086259493  0.8541248840770593  0.5233788787036603  1.0000
  C   C25       1.0  0.3627336162301017  0.1282621886334994  0.7215207551924012  1.0000
  C   C26       1.0  0.7126843244557503  0.3716136479057112  0.7786817960528013  1.0000
  C   C27       1.0  0.6372610045871523  0.8717376843283305  0.2784868538322555  1.0000
  C   C28       1.0  0.28732207465346676  0.6283892628667401  0.22131376661604207  1.0000
  C   C29       1.0  0.23495526757217503  0.3336454084666586  0.6459982482574632  1.0000
  C   C30       1.0  0.7143528023078142  0.1663006558548261  0.8543017106862365  1.0000
  C   C31       1.0  0.7650469588895558  0.666355199772198  0.3540038034595127  1.0000
  C   C32       1.0  0.28565073727979484  0.8336967160885109  0.14569135346944506  1.0000
  C   C33       1.0  0.20571010111223095  0.4065031717177662  0.8229355206273823  1.0000
  C   C34       1.0  0.9351176552324171  0.0932918674511996  0.6774838266220228  1.0000
  C   C35       1.0  0.7942912402761664  0.5934998189770013  0.17706851273080554  1.0000
  C   C36       1.0  0.06488031297672564  0.9067015919685204  0.3225120892663469  1.0000
  C   C37       1.0  0.42007960195221006  0.017511219628609402  0.7665279107562029  1.0000
  C   C38       1.0  0.7045890968962778  0.482320014492018  0.7336330952596413  1.0000
  C   C39       1.0  0.5799125038389544  0.9824917912138462  0.23347821585255693  1.0000
  C   C40       1.0  0.29542073520991574  0.5176813290238729  0.2663633991496539  1.0000
  C   C41       1.0  0.943429047370841  0.3653515786152042  0.9273817736669373  1.0000
  C   C42       1.0  0.7359672964030108  0.13443861129402987  0.5732780910910477  1.0000
  C   C43       1.0  0.056565509893253596  0.6346538055673677  0.07262538303779559  1.0000
  C   C44       1.0  0.26402975383524524  0.8655532775016327  0.42671837547275965  1.0000
  C   C45       1.0  0.8813526400997772  0.3247546758788075  0.02943537442248347  1.0000
  C   C46       1.0  0.7350589448594815  0.17534171855793093  0.4713603206622067  1.0000
  C   C47       1.0  0.11863928194820467  0.6752538363428969  0.9705692528686357  1.0000
  C   C48       1.0  0.2649336433791516  0.8246525421264579  0.528636985092625  1.0000
  C   C49       1.0  0.2952239949257628  0.8796877785516768  0.7573608678987185  1.0000
  C   C50       1.0  0.4331178761708398  0.6204116558488053  0.7422474823367368  1.0000
  C   C51       1.0  0.7047703273810981  0.1203143837347582  0.24263882401506007  1.0000
  C   C52       1.0  0.5668845815126885  0.3795865869753215  0.2577543961219106  1.0000
  C   C53       1.0  0.12869034036616242  0.008833661681436001  0.8687654047734626  1.0000
  C   C54       1.0  0.507003975779035  0.4908875068135857  0.6313467746530392  1.0000
  C   C55       1.0  0.8712992320824139  0.9911677168462277  0.13123470491186842  1.0000
  C   C56       1.0  0.49300562510536117  0.5091162021170347  0.36864989301459156  1.0000
  C   C57       1.0  0.045738583250013405  0.9397455148576555  0.8691929945612246  1.0000
  C   C58       1.0  0.35553239776094603  0.5600456239588211  0.6306717771994457  1.0000
  C   C59       1.0  0.9542552582967686  0.06025660806282221  0.1308025093616791  1.0000
  C   C60       1.0  0.6444784487668469  0.4399557320403532  0.369326049820124  1.0000
  N   N1        1.0  0.08628202458834233  0.3835532246993481  0.9248346416980696  1.0000
  N   N2        1.0  0.8945941555543087  0.11618882224693294  0.5756382512668168  1.0000
  N   N3        1.0  0.9137152207932924  0.6164489651954599  0.07516800104878724  1.0000
  N   N4        1.0  0.1054024866352771  0.883799901059739  0.42435674687980207  1.0000
  N   N5        1.0  0.984649221527519  0.3179972574588135  0.0892747012649123  1.0000
  N   N6        1.0  0.891365612283067  0.1822106784767428  0.4114342730655807  1.0000
  N   N7        1.0  0.015350730288161672  0.6820065083436476  0.9107279620316079  1.0000
  N   N8        1.0  0.10862759148672263  0.8177828142996477  0.5885651641360924  1.0000
  N   N9        1.0  0.28668036403341496  0.9691251204581451  0.7977809421759404  1.0000
  N   N10       1.0  0.5542788827362265  0.5307858791752766  0.7021592837375226  1.0000
  N   N11       1.0  0.7133169777989322  0.030875511295889203  0.20222358385662173  1.0000
  N   N12       1.0  0.4457265838210487  0.4692162780885597  0.29783993314850926  1.0000
  N   N13       1.0  0.14985434331196482  0.8600817276017665  0.7990513175075762  1.0000
  N   N14       1.0  0.3099005369961174  0.6399628417760539  0.700506681727056  1.0000
  N   N15       1.0  0.8501388918618957  0.1399235483244183  0.20094432222224146  1.0000
  N   N16       1.0  0.6901049785332627  0.3600346213824892  0.2994960910206429  1.0000
  O   O1        1.0  0.061787286711776634  0.36027190271267523  0.27959588069759184  1.0000
  O   O2        1.0  0.20162890777817194  0.14046326610861834  0.22130251030367282  1.0000
  O   O3        1.0  0.9382077475769675  0.6397279335249952  0.7204078259487332  1.0000
  O   O4        1.0  0.798372222392302  0.8595380706722792  0.7786932219755798  1.0000
  O   O5        1.0  0.32489019838242666  0.19397283877711402  0.40223932501430687  1.0000
  O   O6        1.0  0.4208322869356278  0.30639254091715173  0.09783394291313387  1.0000
  O   O7        1.0  0.6751086601289698  0.8060159954277494  0.5977674757197704  1.0000
  O   O8        1.0  0.5791916745554244  0.6936111440335894  0.90216025118378  1.0000
  O   O9        1.0  0.1291555926282937  0.3490202538111333  0.4613124276962567  1.0000
  O   O10       1.0  0.43978866834451924  0.1509137057826067  0.039455462772679015  1.0000
  O   O11       1.0  0.8708480050896619  0.6509748091246195  0.5386864595748618  1.0000
  O   O12       1.0  0.5602285105157204  0.8490845425861198  0.9605470831084092  1.0000
