data_image0
_chemical_formula_structural       Cu6H28C24S2I6N8
_chemical_formula_sum              "Cu6 H28 C24 S2 I6 N8"
_cell_length_a       8.404279686380995
_cell_length_b       9.119867166367342
_cell_length_c       13.546866350358016
_cell_angle_alpha    87.27397364316701
_cell_angle_beta     85.8936269150508
_cell_angle_gamma    66.1493510560986

_space_group_name_H-M_alt    "P 1"
_space_group_IT_number       1

loop_
  _space_group_symop_operation_xyz
  'x, y, z'

loop_
  _atom_site_type_symbol
  _atom_site_label
  _atom_site_symmetry_multiplicity
  _atom_site_fract_x
  _atom_site_fract_y
  _atom_site_fract_z
  _atom_site_occupancy
  Cu  Cu1       1.0  0.4945584181791247  0.11587225539633288  0.2643510202150523  1.0000
  Cu  Cu2       1.0  0.5054414374056433  0.8841270048341772  0.7356463721145658  1.0000
  Cu  Cu3       1.0  0.364135265541762  0.09744170898534317  0.4541980027184707  1.0000
  Cu  Cu4       1.0  0.6358633521178447  0.9025659140603324  0.5458014219132323  1.0000
  Cu  Cu5       1.0  0.18876286676609058  0.3422601894974235  0.22667378879368272  1.0000
  Cu  Cu6       1.0  0.8112373028760229  0.6577438303331747  0.7733264094906147  1.0000
  H   H1        1.0  0.2568733240707104  0.7438470566365253  0.1088267352146701  1.0000
  H   H2        1.0  0.7431354764194749  0.2561341396199525  0.8911796439530948  1.0000
  H   H3        1.0  0.14478264673880398  0.9572038366087909  0.10031411559429422  1.0000
  H   H4        1.0  0.8552285453535119  0.04277734641370758  0.8996921628133734  1.0000
  H   H5        1.0  0.16232373277392753  0.8336470340427055  0.9978360320156909  1.0000
  H   H6        1.0  0.837684035119949  0.16633657222033088  0.002168846820779899  1.0000
  H   H7        1.0  0.36459850861688636  0.45900291604164056  0.3822695826025679  1.0000
  H   H8        1.0  0.635399784177217  0.5409999061222877  0.617732205029661  1.0000
  H   H9        1.0  0.29814933329853927  0.6654451142134903  0.41390667349285354  1.0000
  H   H10       1.0  0.7018491211563073  0.33456010544261966  0.5860943018502028  1.0000
  H   H11       1.0  0.30385919363667563  0.6085290247153168  0.28842817232720114  1.0000
  H   H12       1.0  0.6961392608181712  0.3914761949407931  0.7115728030158552  1.0000
  H   H13       1.0  0.8570201732240077  0.053307233015551986  0.19092886533923803  1.0000
  H   H14       1.0  0.1429894699738483  0.9466775650167775  0.8090751625714816  1.0000
  H   H15       1.0  0.5546022989279249  0.7886458103561295  0.1908453547556093  1.0000
  H   H16       1.0  0.4453884752305299  0.2113606952868636  0.8091500037468933  1.0000
  H   H17       1.0  0.8518939582076756  0.4894725131256974  0.01597907402381081  1.0000
  H   H18       1.0  0.14810521478613475  0.5105255369237655  0.9840205956958528  1.0000
  H   H19       1.0  0.665328880815565  0.5352722651083893  0.10042259217266292  1.0000
  H   H20       1.0  0.334671172377945  0.4647210128266082  0.8995749596344355  1.0000
  H   H21       1.0  0.8570059452934299  0.29569729206358625  0.32909228348645314  1.0000
  H   H22       1.0  0.14299370496247826  0.7043079209755304  0.6709086414765439  1.0000
  H   H23       1.0  0.6784587081835909  0.45712056546233976  0.279744087279667  1.0000
  H   H24       1.0  0.3215402672014774  0.5428834668826283  0.7202554229625164  1.0000
  H   H25       1.0  0.6212549063115842  0.6463727392245245  0.4188690135054074  1.0000
  H   H26       1.0  0.3787401378410279  0.3536349567485431  0.5811239164668933  1.0000
  H   H27       1.0  0.009678953366439126  0.7906842778561655  0.4863496855919039  1.0000
  H   H28       1.0  0.9903155559597534  0.20932455235162448  0.5136513552808353  1.0000
  C   C1        1.0  0.144081082895262  0.8432400658994439  0.07879981668871493  1.0000
  C   C2        1.0  0.855927361413485  0.15674472695511807  0.9212057384464031  1.0000
  C   C3        1.0  0.9794649569669784  0.8265284789788936  0.1140392897293054  1.0000
  C   C4        1.0  0.020541936903292375  0.1734599229881297  0.8859647533310382  1.0000
  C   C5        1.0  0.8452620301044859  0.9445248619494464  0.1692494545588232  1.0000
  C   C6        1.0  0.15474143802332208  0.05546595736073809  0.830753927352504  1.0000
  C   C7        1.0  0.6785147304318713  0.7972200277337435  0.16984087270348885  1.0000
  C   C8        1.0  0.3214815377496975  0.2027792523477387  0.8301566707662859  1.0000
  C   C9        1.0  0.8142978100561247  0.6765419269188443  0.11770114324477994  1.0000
  C   C10       1.0  0.18569964775041828  0.32345732295613056  0.8822993035336352  1.0000
  C   C11       1.0  0.8001445831171092  0.5254049736554975  0.09200227812203825  1.0000
  C   C12       1.0  0.19985407203451894  0.474594275499861  0.9079973798541517  1.0000
  C   C13       1.0  0.8198639491276367  0.40986748451364  0.28678547362832063  1.0000
  C   C14       1.0  0.18013793261369654  0.5901353236966858  0.7132154244415718  1.0000
  C   C15       1.0  0.8730747192684447  0.5207375019168906  0.3413535324482595  1.0000
  C   C16       1.0  0.12692150987707856  0.4792701461575246  0.6586445160992014  1.0000
  C   C17       1.0  0.7566089211151593  0.6318541263400873  0.40723604432370314  1.0000
  C   C18       1.0  0.24338456333484265  0.3681571433611594  0.5927598041068692  1.0000
  C   C19       1.0  0.971604656866404  0.7110590950905616  0.4452493164605968  1.0000
  C   C20       1.0  0.02839156919107207  0.2889485411891002  0.5547502089312175  1.0000
  C   C21       1.0  0.09127138408886998  0.5996820841299237  0.380350692802928  1.0000
  C   C22       1.0  0.908726550979779  0.4003243287347047  0.6196510092188278  1.0000
  C   C23       1.0  0.27442935829485277  0.5833956705597744  0.3662475999375729  1.0000
  C   C24       1.0  0.7255708082592133  0.4166083374760702  0.6337540751910711  1.0000
  S   S1        1.0  0.9310827357018423  0.35066877984686334  0.16619442836606174  1.0000
  S   S2        1.0  0.06891846962462006  0.6493328417719368  0.8338057934051903  1.0000
  I   I1        1.0  0.6454325067807005  0.1489800265094843  0.4239924246980138  1.0000
  I   I2        1.0  0.354565082914675  0.8510300242348876  0.5760032843358687  1.0000
  I   I3        1.0  0.2303773081651315  0.0332996974858446  0.303072368094135  1.0000
  I   I4        1.0  0.7696223451788312  0.966705527348033  0.6969270800245158  1.0000
  I   I5        1.0  0.4553055274609718  0.34484491833886466  0.12955461037046231  1.0000
  I   I6        1.0  0.5446962018837522  0.6551555277635543  0.8704426694555707  1.0000
  N   N1        1.0  0.6946705829055942  0.9304177387122721  0.19627059595396903  1.0000
  N   N2        1.0  0.3053291110184304  0.06957912402604899  0.8037276086648221  1.0000
  N   N3        1.0  0.9630317849580478  0.6923635408854948  0.08971757940840062  1.0000
  N   N4        1.0  0.036969974158587625  0.3076285018397157  0.9102836258729852  1.0000
  N   N5        1.0  0.8055720779744245  0.7266302528161788  0.45979988932352006  1.0000
  N   N6        1.0  0.19442260227663868  0.2733810102680748  0.5401959087269931  1.0000
  N   N7        1.0  0.040817440956679656  0.50345553364118  0.3286952076252163  1.0000
  N   N8        1.0  0.9591828872581302  0.49655087188684627  0.6713056552142619  1.0000
