data_image0
_chemical_formula_structural       Fe6H30C30O24
_chemical_formula_sum              "Fe6 H30 C30 O24"
_cell_length_a       6.716704191516483
_cell_length_b       15.423482038876362
_cell_length_c       15.41711974340801
_cell_angle_alpha    118.15989928093492
_cell_angle_beta     98.40528861151758
_cell_angle_gamma    98.8741346654872

_space_group_name_H-M_alt    "P 1"
_space_group_IT_number       1

loop_
  _space_group_symop_operation_xyz
  'x, y, z'

loop_
  _atom_site_type_symbol
  _atom_site_label
  _atom_site_symmetry_multiplicity
  _atom_site_fract_x
  _atom_site_fract_y
  _atom_site_fract_z
  _atom_site_occupancy
  Fe  Fe1       1.0  0.013001559639334827  0.724103907540069  0.4063821903861041  1.0000
  Fe  Fe2       1.0  0.29870303357132844  0.6753684879060629  0.26979670242696596  1.0000
  Fe  Fe3       1.0  0.6534986004778105  0.6029326105744914  0.32969688082094  1.0000
  Fe  Fe4       1.0  0.9734919026186404  0.2657404953512454  0.5897233015817278  1.0000
  Fe  Fe5       1.0  0.6744727209268857  0.32439466615664964  0.7245825129588468  1.0000
  Fe  Fe6       1.0  0.38324359444006706  0.39851058997478345  0.6772237387387108  1.0000
  H   H1        1.0  0.12049957313266187  0.9711053270262368  0.4316559326682494  1.0000
  H   H2        1.0  0.1445643795204532  0.45713805710201433  0.02227732760577796  1.0000
  H   H3        1.0  0.702526136175443  0.5654120713821627  0.5513511688257823  1.0000
  H   H4        1.0  0.8704780933997823  0.023315113812273597  0.5681900846040194  1.0000
  H   H5        1.0  0.8487977958343363  0.5489490669243721  0.9810781510799276  1.0000
  H   H6        1.0  0.3141468938383341  0.4361156164725628  0.4582190641805469  1.0000
  H   H7        1.0  0.40632745536095893  0.792533620895121  0.5269530137595029  1.0000
  H   H8        1.0  0.6210828238401334  0.7399892144164255  0.21764949882832246  1.0000
  H   H9        1.0  0.9071178096799669  0.4901608428783176  0.26765022874986505  1.0000
  H   H10       1.0  0.5937804106373434  0.2101225668318776  0.47517195003501916  1.0000
  H   H11       1.0  0.3553337824120105  0.26257136556244376  0.7768447919601587  1.0000
  H   H12       1.0  0.12257100100486443  0.5244302031520505  0.7333383712283565  1.0000
  H   H13       1.0  0.4023239984718573  0.889800883155985  0.7039129901107162  1.0000
  H   H14       1.0  0.5221289977355709  0.8202654828392466  0.1203931569042993  1.0000
  H   H15       1.0  0.723432133385806  0.3104603301313844  0.1815497111249087  1.0000
  H   H16       1.0  0.5823815391930153  0.1105819739995511  0.29585147540413465  1.0000
  H   H17       1.0  0.45837126561064406  0.1802266510212576  0.8720826898646196  1.0000
  H   H18       1.0  0.31830731158375164  0.7003182898704597  0.815964069368967  1.0000
  H   H19       1.0  0.31454438834166604  0.9427491094278294  0.6275522840919123  1.0000
  H   H20       1.0  0.4024460206752352  0.6856820216396572  0.0574880771723231  1.0000
  H   H21       1.0  0.7293724505634458  0.37933281177897976  0.3147846281793747  1.0000
  H   H22       1.0  0.6484074935306835  0.050016081716854885  0.3675889718888712  1.0000
  H   H23       1.0  0.5871742709780534  0.3137874510399357  0.9342333947665794  1.0000
  H   H24       1.0  0.3205754590681026  0.6241722640999045  0.6845681809841226  1.0000
  H   H25       1.0  0.12924268489904026  0.8671844074115144  0.6532156503904718  1.0000
  H   H26       1.0  0.26313658133565104  0.7753625552778517  0.1250679111169647  1.0000
  H   H27       1.0  0.5053208512722803  0.3576248529389616  0.2214252221489161  1.0000
  H   H28       1.0  0.8494748293059896  0.1177209968536204  0.3413934595858096  1.0000
  H   H29       1.0  0.7146526523275585  0.2204086076344112  0.8614870881238518  1.0000
  H   H30       1.0  0.5336777798917253  0.6465405637170392  0.783252409999463  1.0000
  C   C1        1.0  0.3092464530172307  0.16502716561135594  0.5485415217678877  1.0000
  C   C2        1.0  0.1395983067348681  0.3849670864347914  0.8285574336626739  1.0000
  C   C3        1.0  0.7647138711850444  0.43877856730647835  0.6144484873043227  1.0000
  C   C4        1.0  0.6817821270649631  0.8287400395977258  0.44645053981227534  1.0000
  C   C5        1.0  0.8544464180602204  0.6198267556381866  0.17214902320638006  1.0000
  C   C6        1.0  0.24597965983285516  0.559125925459682  0.3896294417324101  1.0000
  C   C7        1.0  0.40984886551753863  0.08161285644239767  0.5266911298540934  1.0000
  C   C8        1.0  0.3259312607098791  0.4466117539161018  0.9153017662838039  1.0000
  C   C9        1.0  0.8928287669628147  0.4676179352127434  0.5580361638106909  1.0000
  C   C10       1.0  0.5816058298172705  0.9128550187061605  0.47195579524458964  1.0000
  C   C11       1.0  0.6674788994749078  0.5595334007649555  0.087862223198492  1.0000
  C   C12       1.0  0.12255390139692686  0.5330905216895091  0.450677384401999  1.0000
  C   C13       1.0  0.3640913753054635  0.8963196729256994  0.43100729145535166  1.0000
  C   C14       1.0  0.4650525684376419  0.5329655602964039  0.1017096610565957  1.0000
  C   C15       1.0  0.9466922899943668  0.5719901065994719  0.47844574738772394  1.0000
  C   C16       1.0  0.6279271490246355  0.09862422853887409  0.5683073964751841  1.0000
  C   C17       1.0  0.5295088421772363  0.4735696676844654  0.9028132446334213  1.0000
  C   C18       1.0  0.06853274478465476  0.42857959005617374  0.5310182146077764  1.0000
  C   C19       1.0  0.2855840902962257  0.9822146385456348  0.4610859063464049  1.0000
  C   C20       1.0  0.30027506673101806  0.47726840834548767  0.013725648102052894  1.0000
  C   C21       1.0  0.8378696957522038  0.5374064535186136  0.5313502462733057  1.0000
  C   C22       1.0  0.7054575820959952  0.0124307805119983  0.5388537362134116  1.0000
  C   C23       1.0  0.693490304238459  0.5291541622619107  0.9900986612442467  1.0000
  C   C24       1.0  0.17886001157104664  0.46407956159174557  0.4784582818128771  1.0000
  C   C25       1.0  0.28375990457104194  0.8771427588802964  0.6388690386114819  1.0000
  C   C26       1.0  0.41725552944740935  0.7604052256219801  0.12403678592691854  1.0000
  C   C27       1.0  0.6753661918360406  0.37275613127054197  0.2405232766332262  1.0000
  C   C28       1.0  0.6965809374144101  0.11601787887681071  0.3583400174743475  1.0000
  C   C29       1.0  0.5639588152303077  0.23860441454893788  0.8667577872345336  1.0000
  C   C30       1.0  0.36479943036037815  0.634376982063074  0.7609958997466962  1.0000
  O   O1        1.0  0.1118820630377897  0.14943384604531224  0.5287364182499417  1.0000
  O   O2        1.0  0.9586321177835869  0.38048555941517054  0.8421339948439767  1.0000
  O   O3        1.0  0.594870043851884  0.4636013666754906  0.6246525113416155  1.0000
  O   O4        1.0  0.8779852898388893  0.8444298000368136  0.47285192536452314  1.0000
  O   O5        1.0  0.03492661876753549  0.6222919338046823  0.15627365464692403  1.0000
  O   O6        1.0  0.42167672865438294  0.5409901847361172  0.38475097408163356  1.0000
  O   O7        1.0  0.4312476214820434  0.25600508751863776  0.5880087614470001  1.0000
  O   O8        1.0  0.17489754451923287  0.3326976126725326  0.7383508436321337  1.0000
  O   O9        1.0  0.8365969936032015  0.38905924054407853  0.6557030323514896  1.0000
  O   O10       1.0  0.5594048783521686  0.7364383271341808  0.3967093847241827  1.0000
  O   O11       1.0  0.8260759648781358  0.672098940322428  0.2630024752081966  1.0000
  O   O12       1.0  0.15688835786961172  0.5971018825478113  0.3384476653796258  1.0000
  O   O13       1.0  0.23225023942364234  0.8048173685319853  0.36604494662015014  1.0000
  O   O14       1.0  0.42616172322470186  0.5570088055472128  0.19261612419000337  1.0000
  O   O15       1.0  0.8772637751361428  0.6391749133731821  0.45807117044096685  1.0000
  O   O16       1.0  0.7595524533141996  0.19040202318122115  0.633545015070439  1.0000
  O   O17       1.0  0.5766203672140903  0.4502258595891248  0.8138315318678835  1.0000
  O   O18       1.0  0.13235940012408073  0.3611122063109349  0.5524381124839621  1.0000
  O   O19       1.0  0.2785621796125853  0.7842523798409716  0.5487081429613739  1.0000
  O   O20       1.0  0.4916493249435377  0.7621002253167364  0.21748526006672378  1.0000
  O   O21       1.0  0.7540272782485927  0.4666440533980278  0.24338368591586607  1.0000
  O   O22       1.0  0.7210842851730419  0.21018110877085416  0.4509524369656149  1.0000
  O   O23       1.0  0.4829690299578432  0.23836223592677194  0.7747611524420821  1.0000
  O   O24       1.0  0.27273247242077764  0.5442750562905232  0.7622540055928726  1.0000
