data_image0
_chemical_formula_structural       Zn4H48C72N24O16
_chemical_formula_sum              "Zn4 H48 C72 N24 O16"
_cell_length_a       10.175542376612915
_cell_length_b       14.72518369687214
_cell_length_c       16.70917300302727
_cell_angle_alpha    89.99984760934694
_cell_angle_beta     90.00014435566435
_cell_angle_gamma    89.75647050666124

_space_group_name_H-M_alt    "P 1"
_space_group_IT_number       1

loop_
  _space_group_symop_operation_xyz
  'x, y, z'

loop_
  _atom_site_type_symbol
  _atom_site_label
  _atom_site_symmetry_multiplicity
  _atom_site_fract_x
  _atom_site_fract_y
  _atom_site_fract_z
  _atom_site_occupancy
  Zn  Zn1       1.0  0.9573594002427297  0.3414076499795797  0.2524574994422366  1.0000
  Zn  Zn2       1.0  0.4573575490370131  0.8414073242675143  0.7475438562294059  1.0000
  Zn  Zn3       1.0  0.46650077080997215  0.7962498704389771  0.2535882909678264  1.0000
  Zn  Zn4       1.0  0.9665055827652363  0.29624937479805874  0.7464089955948693  1.0000
  H   H1        1.0  0.3553803472717404  0.9187078614127129  0.9188412109480311  1.0000
  H   H2        1.0  0.8553717150207727  0.4186985349576631  0.0811615972161519  1.0000
  H   H3        1.0  0.17511953625555066  0.0563518714099516  0.1481205097662226  1.0000
  H   H4        1.0  0.6751202108680728  0.55635162890146  0.851879269095754  1.0000
  H   H5        1.0  0.2178916874134344  0.9623419060659585  0.0279609336549242  1.0000
  H   H6        1.0  0.7178915052327425  0.4623414136449071  0.9720385615647514  1.0000
  H   H7        1.0  0.11495452729303676  0.0951916067905358  0.779727977117183  1.0000
  H   H8        1.0  0.614965439739336  0.5951952992442529  0.22027341067939693  1.0000
  H   H9        1.0  0.09887398411409268  0.28832369421941456  0.9986230720419085  1.0000
  H   H10       1.0  0.5988781389701427  0.7883226268681865  0.0013766412980161  1.0000
  H   H11       1.0  0.15492189759996924  0.19915233892442066  0.8787746802504516  1.0000
  H   H12       1.0  0.6549275156330693  0.6991509063991188  0.121225929296422  1.0000
  H   H13       1.0  0.12928572852094788  0.472837788251553  0.6484595299762007  1.0000
  H   H14       1.0  0.6292981806725275  0.9728308941765033  0.3515427922771437  1.0000
  H   H15       1.0  0.299967185298989  0.6621251208919927  0.478939983170882  1.0000
  H   H16       1.0  0.7999661780958288  0.16212599558275537  0.5210597465393718  1.0000
  H   H17       1.0  0.028770048776912895  0.3893925548738224  0.535483878663662  1.0000
  H   H18       1.0  0.5287770511178137  0.8893873641105826  0.4645190776173962  1.0000
  H   H19       1.0  0.2745352501435434  0.5204508225574996  0.7320418231904853  1.0000
  H   H20       1.0  0.7745430559158774  0.020452450637570497  0.2679564022342333  1.0000
  H   H21       1.0  0.19907843664980615  0.5785568436630798  0.3684695424660447  1.0000
  H   H22       1.0  0.6990778599744727  0.07856145778944781  0.6315302224956909  1.0000
  H   H23       1.0  0.31169796032990144  0.7576935214321805  0.5887556088118869  1.0000
  H   H24       1.0  0.8117024238150774  0.25768996676063677  0.4112487036922374  1.0000
  H   H25       1.0  0.37089672549468117  0.7186737274191158  0.07694222045778082  1.0000
  H   H26       1.0  0.8708983165780992  0.2186720224764116  0.9230562926812311  1.0000
  H   H27       1.0  0.3149251876249081  0.881655090855503  0.4099836025495236  1.0000
  H   H28       1.0  0.814927394853981  0.3816591474412334  0.5900162356672638  1.0000
  H   H29       1.0  0.19118641710253564  0.5109145678897915  0.2152675388819745  1.0000
  H   H30       1.0  0.6911844972272545  0.010916003589365203  0.7847275840462727  1.0000
  H   H31       1.0  0.2920713657216892  0.11973536745448139  0.26710307778247966  1.0000
  H   H32       1.0  0.7920715551922369  0.6197382024686888  0.7329003294208292  1.0000
  H   H33       1.0  0.41780231769494225  0.579328922495925  0.9888068198767002  1.0000
  H   H34       1.0  0.9178051836777497  0.07932454453288777  0.0111867076219809  1.0000
  H   H35       1.0  0.04213471474078288  0.517943725395554  0.0948233902860451  1.0000
  H   H36       1.0  0.542134266578408  0.017942756775191502  0.9051714793615488  1.0000
  H   H37       1.0  0.12804602060790418  0.16220696499886592  0.3473731780418134  1.0000
  H   H38       1.0  0.628042940040309  0.6622100480209453  0.6526280737199528  1.0000
  H   H39       1.0  0.31272615202833975  0.9809033724128965  0.5191265284188802  1.0000
  H   H40       1.0  0.8127269349036083  0.4809091199040054  0.4808772633602629  1.0000
  H   H41       1.0  0.3538555055544633  0.4943410779391612  0.8663423994694668  1.0000
  H   H42       1.0  0.8538582394932559  0.9943348583134011  0.1336512521790496  1.0000
  H   H43       1.0  0.9815098681644224  0.4296697005885902  0.9712099232055066  1.0000
  H   H44       1.0  0.48151203556651  0.9296647546577858  0.0287840826179888  1.0000
  H   H45       1.0  0.025048211970506894  0.24647475045384223  0.459918962614573  1.0000
  H   H46       1.0  0.5250476326200654  0.7464768123829585  0.5400813298191879  1.0000
  H   H47       1.0  0.2084515278581448  0.064799673795676  0.6289803509969474  1.0000
  H   H48       1.0  0.7084522260788187  0.5648056413972852  0.3710218549460933  1.0000
  C   C1        1.0  0.30376945186325327  0.9508282625638385  0.8696657482861098  1.0000
  C   C2        1.0  0.8037639527008976  0.4508228571463632  0.13033690270235354  1.0000
  C   C3        1.0  0.18942572944611405  0.0746903675772543  0.945563317317891  1.0000
  C   C4        1.0  0.6894300928944472  0.5746904974333445  0.0544358428898448  1.0000
  C   C5        1.0  0.10413778850458034  0.2346354787223888  0.1548710277047363  1.0000
  C   C6        1.0  0.6041285962099322  0.734639346073145  0.84513181198961  1.0000
  C   C7        1.0  0.13397963298943688  0.1787130934611341  0.0815676685085052  1.0000
  C   C8        1.0  0.6339815509890696  0.6787146848547395  0.9184323571130051  1.0000
  C   C9        1.0  0.16915130999410616  0.08690862047455988  0.0889427948388786  1.0000
  C   C10       1.0  0.6691531963830072  0.5869109133603914  0.9110586984514556  1.0000
  C   C11       1.0  0.19469350244715858  0.0342843043981915  0.0213297159709711  1.0000
  C   C12       1.0  0.6946946853064302  0.5342836771205128  0.9786689486879894  1.0000
  C   C13       1.0  0.18065812956250224  0.040567553722723894  0.7979007460576709  1.0000
  C   C14       1.0  0.6806630787769734  0.5405692728071969  0.20209907854363954  1.0000
  C   C15       1.0  0.12656713131919864  0.21727534198811324  0.0051299625788204  1.0000
  C   C16       1.0  0.626571323289525  0.7172760193604332  0.9948723549206308  1.0000
  C   C17       1.0  0.15660095022110446  0.1664648465140033  0.9372330289184063  1.0000
  C   C18       1.0  0.6566063359703589  0.6664629122783907  0.062767659790488  1.0000
  C   C19       1.0  0.10428522924028978  0.4789874809738208  0.4446229635882233  1.0000
  C   C20       1.0  0.6042876676772407  0.9789867756169739  0.555380501481565  1.0000
  C   C21       1.0  0.035973558103691496  0.42707262955312336  0.38010571359286877  1.0000
  C   C22       1.0  0.5359752765044589  0.9270703716515953  0.6198965674757986  1.0000
  C   C23       1.0  0.18173094377524274  0.555473937238297  0.4294671885388297  1.0000
  C   C24       1.0  0.6817311114959705  0.0554766976613692  0.5705343982999053  1.0000
  C   C25       1.0  0.1430790504433901  0.49675180878154623  0.5872847319025283  1.0000
  C   C26       1.0  0.6430887974983647  0.9967454125855325  0.4127157608815253  1.0000
  C   C27       1.0  0.21759413150226686  0.5742375462612871  0.5710983817050987  1.0000
  C   C28       1.0  0.7175976768531597  0.0742359768218961  0.4289014227954269  1.0000
  C   C29       1.0  0.23833772178623028  0.6035903777122584  0.4924864540968201  1.0000
  C   C30       1.0  0.7383366664300862  0.10358925617356357  0.5075127161962598  1.0000
  C   C31       1.0  0.08689197081700677  0.44991622203721693  0.5238668817186394  1.0000
  C   C32       1.0  0.586899009475239  0.9499143915861552  0.476136025276638  1.0000
  C   C33       1.0  0.3003266375166546  0.5887810125535609  0.7122263006937501  1.0000
  C   C34       1.0  0.8003345227253358  0.08878258049618637  0.2877741997039108  1.0000
  C   C35       1.0  0.3169645595525309  0.7098565210203843  0.6378203354161371  1.0000
  C   C36       1.0  0.8169698009141584  0.20985583022793014  0.3621840973994495  1.0000
  C   C37       1.0  0.33386085075405697  0.6792890443305594  0.12681484301121768  1.0000
  C   C38       1.0  0.8338622419163497  0.1792874907385311  0.8731819080245343  1.0000
  C   C39       1.0  0.32397767834310537  0.92935658381689  0.3610613242121516  1.0000
  C   C40       1.0  0.8239781161753823  0.42936049487400396  0.6389414091269288  1.0000
  C   C41       1.0  0.2413450037987913  0.5730969963305768  0.19798418501272144  1.0000
  C   C42       1.0  0.7413441380113495  0.0730976989965981  0.8020114705739374  1.0000
  C   C43       1.0  0.3158497121109675  0.051153110122868405  0.2870377362152752  1.0000
  C   C44       1.0  0.8158508126243404  0.5511532877122675  0.7129640738463081  1.0000
  C   C45       1.0  0.23336593768197378  0.5521993547034116  0.0488194300063043  1.0000
  C   C46       1.0  0.7333627215626276  0.05219960911190919  0.9511750648570114  1.0000
  C   C47       1.0  0.22498852523268195  0.0658855915984518  0.4264484961233065  1.0000
  C   C48       1.0  0.7249870849992346  0.565891628101312  0.5735537335531617  1.0000
  C   C49       1.0  0.32179440151762856  0.5471068143020474  0.984978943744281  1.0000
  C   C50       1.0  0.8217962980404179  0.047103105304898876  0.0150151050795841  1.0000
  C   C51       1.0  0.11001847855885667  0.5113180578360427  0.0447389863987695  1.0000
  C   C52       1.0  0.610018233209665  0.0113162581143129  0.9552542111977758  1.0000
  C   C53       1.0  0.14502989069492855  0.14077116344397209  0.4090339582831319  1.0000
  C   C54       1.0  0.645034420902597  0.6407757800519887  0.5909691660533838  1.0000
  C   C55       1.0  0.24848595486757558  0.0383130901093267  0.5052471805801559  1.0000
  C   C56       1.0  0.7484871490783997  0.5383186822206267  0.4947539540116139  1.0000
  C   C57       1.0  0.28615170045137006  0.49897532507120695  0.9166237036654863  1.0000
  C   C58       1.0  0.7861542225864679  0.9989726535981234  0.0833710265034  1.0000
  C   C59       1.0  0.07670483455220278  0.4625676548275592  0.9766050044288052  1.0000
  C   C60       1.0  0.5767041659295271  0.9625658489042551  0.0233882811885877  1.0000
  C   C61       1.0  0.08698695236147808  0.18759560045808138  0.4720447556353662  1.0000
  C   C62       1.0  0.5869892542228283  0.6876038067923886  0.527956969944384  1.0000
  C   C63       1.0  0.19003327523122238  0.08641758434816178  0.5676930169696917  1.0000
  C   C64       1.0  0.690037165340719  0.5864240406662518  0.4323085106468199  1.0000
  C   C65       1.0  0.16455088317498925  0.4550666594173193  0.912379881677424  1.0000
  C   C66       1.0  0.6645524436638225  0.9550626183109542  0.0876135610805875  1.0000
  C   C67       1.0  0.10785060066285716  0.16067762474879999  0.5515250987379119  1.0000
  C   C68       1.0  0.6078516073194603  0.6606840364096485  0.4484779199336231  1.0000
  C   C69       1.0  0.1274316113272533  0.39992896772516656  0.8401632965391457  1.0000
  C   C70       1.0  0.6274393352913348  0.899932168883424  0.1598344055809235  1.0000
  C   C71       1.0  0.03886615509448889  0.21224027730084316  0.6160643835927927  1.0000
  C   C72       1.0  0.5388639527295779  0.7122475683380641  0.383940798692727  1.0000
  N   N1        1.0  0.31463997368340557  0.9269081203976766  0.7937894982883691  1.0000
  N   N2        1.0  0.8146387035461015  0.42690451618014436  0.2062126274771288  1.0000
  N   N3        1.0  0.22013932028330868  0.023312636879857997  0.8755294151265005  1.0000
  N   N4        1.0  0.7201380740877494  0.5233105256822767  0.12447111106069998  1.0000
  N   N5        1.0  0.23654618587168835  0.9830298487342901  0.7481174513358438  1.0000
  N   N6        1.0  0.7365500023410262  0.48302949413236723  0.2518850174832679  1.0000
  N   N7        1.0  0.2742559324967572  0.6223593334780871  0.6366545771649044  1.0000
  N   N8        1.0  0.7742621633310235  0.12235795856915385  0.3633470001788695  1.0000
  N   N9        1.0  0.3666081377125464  0.7275116909096226  0.7092296333884534  1.0000
  N   N10       1.0  0.8666150521861763  0.22751325122215596  0.2907748369910905  1.0000
  N   N11       1.0  0.35605550375703376  0.6513142652423981  0.7568083704993142  1.0000
  N   N12       1.0  0.8560641889168461  0.1513173252299325  0.2431950644785061  1.0000
  N   N13       1.0  0.3454058851121998  0.7002826497108499  0.20342304753363993  1.0000
  N   N14       1.0  0.845406965086745  0.2002826868266325  0.7965742711898968  1.0000
  N   N15       1.0  0.3763080701507845  0.9107896474934165  0.2904402981386269  1.0000
  N   N16       1.0  0.8763107627281028  0.41079130396155245  0.7095601679099204  1.0000
  N   N17       1.0  0.2876946155454973  0.6333155993838986  0.24867606771722  1.0000
  N   N18       1.0  0.7876945272616067  0.1333171335275551  0.7513195205955225  1.0000
  N   N19       1.0  0.3713159353023982  0.9875108269474423  0.24308896805758454  1.0000
  N   N20       1.0  0.8713168603831248  0.48750962620337646  0.7569131059424592  1.0000
  N   N21       1.0  0.26817497225565023  0.5991280237011908  0.1203621415679663  1.0000
  N   N22       1.0  0.7681744217210988  0.0991271325818843  0.8796334957356677  1.0000
  N   N23       1.0  0.28435459817358577  0.0176411962265632  0.3617051202246273  1.0000
  N   N24       1.0  0.7843553932280186  0.5176436377480085  0.638296718212935  1.0000
  O   O1        1.0  0.02714896236143009  0.30401241086382663  0.1440857914526106  1.0000
  O   O2        1.0  0.5271427656739504  0.8040148828427078  0.8559209528776464  1.0000
  O   O3        1.0  0.15191072077777787  0.2120738347423696  0.2210215831565208  1.0000
  O   O4        1.0  0.6519012571574477  0.7120799401845374  0.7789777943993598  1.0000
  O   O5        1.0  0.08123681427343848  0.4290722515411716  0.3075473985878574  1.0000
  O   O6        1.0  0.5812358711617448  0.9290711360844737  0.6924543512452176  1.0000
  O   O7        1.0  0.4356032615701863  0.8813921327550741  0.6017430395107226  1.0000
  O   O8        1.0  0.9355988035853  0.381396780092274  0.398255794119251  1.0000
  O   O9        1.0  0.5872586618915603  0.7105311685637475  0.3121311810780512  1.0000
  O   O10       1.0  0.08726900389432049  0.21052704341978765  0.6878698928078748  1.0000
  O   O11       1.0  0.5354875040873137  0.8405932497665489  0.148019334871563  1.0000
  O   O12       1.0  0.035488672289908194  0.34058999951880503  0.8519819508530517  1.0000
  O   O13       1.0  0.4366770533265053  0.7570131643262529  0.4010240958855604  1.0000
  O   O14       1.0  0.9366763830686435  0.25700565319684887  0.5989828106911405  1.0000
  O   O15       1.0  0.18387553532728154  0.412055045808934  0.774531114288898  1.0000
  O   O16       1.0  0.6838913885153841  0.9120566778154637  0.2254618613597259  1.0000
