data_image0
_chemical_formula_structural       Zn2H48C54N8O8
_chemical_formula_sum              "Zn2 H48 C54 N8 O8"
_cell_length_a       10.7596185886602
_cell_length_b       11.177356660023142
_cell_length_c       11.565
_cell_angle_alpha    65.19718518124903
_cell_angle_beta     83.24471047428966
_cell_angle_gamma    67.51751116783277

_space_group_name_H-M_alt    "P 1"
_space_group_IT_number       1

loop_
  _space_group_symop_operation_xyz
  'x, y, z'

loop_
  _atom_site_type_symbol
  _atom_site_label
  _atom_site_symmetry_multiplicity
  _atom_site_fract_x
  _atom_site_fract_y
  _atom_site_fract_z
  _atom_site_occupancy
  Zn  Zn1       1.0  0.1992837591904149  0.8192999063410582  0.1639119645341296  1.0000
  Zn  Zn2       1.0  0.800716235549551  0.1806995020430975  0.8360875841613762  1.0000
  H   H1        1.0  0.1915631564718083  0.5174665838218075  0.30519315212324466  1.0000
  H   H2        1.0  0.8084374020559867  0.4825338851859442  0.6948067695359937  1.0000
  H   H3        1.0  0.2925309110085621  0.3471060405564117  0.3065211405032429  1.0000
  H   H4        1.0  0.7074683395103561  0.652895489074929  0.6934793589643675  1.0000
  H   H5        1.0  0.19361718491155247  0.4832635942174406  0.16802354536817882  1.0000
  H   H6        1.0  0.8063818739300572  0.5167358141667151  0.8319778351054623  1.0000
  H   H7        1.0  0.46946880534267177  0.8647592941304723  0.08139134461021065  1.0000
  H   H8        1.0  0.5305351134239302  0.1352369323829166  0.9186116587276273  1.0000
  H   H9        1.0  0.7056652917350306  0.8183591332146918  0.01012747762263191  1.0000
  H   H10       1.0  0.2943391908194073  0.1816381539222789  0.9898758986789387  1.0000
  H   H11       1.0  0.847105623181868  0.5855968008965533  0.009284227619076503  1.0000
  H   H12       1.0  0.15289642378803595  0.4143994256168355  0.9907163865296835  1.0000
  H   H13       1.0  0.7627129661807502  0.3856904662205594  0.08658251348260392  1.0000
  H   H14       1.0  0.2372845929746816  0.6143078815400074  0.9134151377379991  1.0000
  H   H15       1.0  0.6151215302947718  0.2588823095256245  0.13813758621184746  1.0000
  H   H16       1.0  0.3848788365557212  0.7411160382349422  0.8618632164534216  1.0000
  H   H17       1.0  0.45301724503031693  0.2595229261753715  0.18761900010483862  1.0000
  H   H18       1.0  0.5469821859218199  0.7404754215851952  0.8123810403048424  1.0000
  H   H19       1.0  0.524343498362292  0.22250610218063832  0.4087381707793865  1.0000
  H   H20       1.0  0.4756561242671538  0.7774943668271135  0.5912609886242635  1.0000
  H   H21       1.0  0.6082410292107028  0.0787184223966335  0.36492204184290955  1.0000
  H   H22       1.0  0.3917585934187358  0.9212820466111181  0.6350779822386484  1.0000
  H   H23       1.0  0.7474282479822209  0.4173829597819605  0.46257068639651777  1.0000
  H   H24       1.0  0.2525704387488616  0.5826175092257913  0.537428575429459  1.0000
  H   H25       1.0  0.5902172079022137  0.4016889124867546  0.4551820537106365  1.0000
  H   H26       1.0  0.40978147882887583  0.5983115565209971  0.544818072793241  1.0000
  H   H27       1.0  0.6456811675829854  0.3986003765859891  0.5963678813813331  1.0000
  H   H28       1.0  0.3543191992675077  0.6013979711745777  0.4036329212839361  1.0000
  H   H29       1.0  0.9273420757723873  0.8519469611355319  0.8936516757348301  1.0000
  H   H30       1.0  0.0726584827554078  0.1480535078722198  0.1063473812464935  1.0000
  H   H31       1.0  0.015222571228676395  0.6328836431354858  0.8501805718610453  1.0000
  H   H32       1.0  0.9847766792902348  0.367117886495862  0.14981992760655768  1.0000
  H   H33       1.0  0.9929132991740843  0.6456058231250807  0.6342029691429829  1.0000
  H   H34       1.0  0.0070861317780526  0.3543925246354931  0.36579880062252096  1.0000
  H   H35       1.0  0.8800365547550087  0.8759700855010379  0.45371745920543555  1.0000
  H   H36       1.0  0.1199638120954845  0.12402826225952882  0.5462842081377417  1.0000
  H   H37       1.0  0.730239781785187  0.3016731683568139  0.3203737088411671  1.0000
  H   H38       1.0  0.2697598408442516  0.6983273006509378  0.6796271799182989  1.0000
  H   H39       1.0  0.811053851078057  0.13402570024051394  0.31526297265660463  1.0000
  H   H40       1.0  0.18894483565303238  0.8659747687672379  0.6847371538472729  1.0000
  H   H41       1.0  0.4680018410795057  0.9559358012422123  0.8453526427231282  1.0000
  H   H42       1.0  0.5319955376427075  0.0440657283891284  0.15464633223330537  1.0000
  H   H43       1.0  0.5520360704203994  0.12014213741735351  0.6675580386225305  1.0000
  H   H44       1.0  0.44796429643009356  0.8798562103432134  0.33244103468693  1.0000
  H   H45       1.0  0.38908988585776416  0.3514768703802673  0.5164533917980734  1.0000
  H   H46       1.0  0.6109119806789067  0.6485225380038955  0.4835459520527934  1.0000
  H   H47       1.0  0.14207239973507058  0.4104337540052398  0.5433946274249664  1.0000
  H   H48       1.0  0.8579289142578544  0.589569896873293  0.4566021921582503  1.0000
  C   C1        1.0  0.36767305697498653  0.5134224260643876  0.20035960839705783  1.0000
  C   C2        1.0  0.6323269377649794  0.48657698231977514  0.799640804976356  1.0000
  C   C3        1.0  0.25613100618498646  0.4616014179683816  0.2484905367701771  1.0000
  C   C4        1.0  0.7438686164444519  0.5383990510393701  0.7515103519892887  1.0000
  C   C5        1.0  0.4854472026993194  0.6510277309288952  0.12537450670407677  1.0000
  C   C6        1.0  0.5145537279390027  0.3489716774552605  0.8746266689249254  1.0000
  C   C7        1.0  0.5335020898088915  0.7615850129426676  0.08297948386679375  1.0000
  C   C8        1.0  0.4665005209488271  0.23841227419430314  0.9170232326015082  1.0000
  C   C9        1.0  0.664686728455507  0.7347257810913632  0.04240155343013186  1.0000
  C   C10       1.0  0.33531775409892367  0.2652715060456146  0.957600093515623  1.0000
  C   C11       1.0  0.7456460302986088  0.60105751100145  0.0432953437409793  1.0000
  C   C12       1.0  0.2543563887818152  0.3989376548883357  0.9567065243775443  1.0000
  C   C13       1.0  0.6998486171740481  0.48912884268283824  0.08590939688267697  1.0000
  C   C14       1.0  0.3001491336586853  0.5108716263249136  0.9140908320435273  1.0000
  C   C15       1.0  0.5687294754161698  0.5167750572396344  0.12785931602486036  1.0000
  C   C16       1.0  0.4312731353415558  0.4832222298973435  0.8721416710876253  1.0000
  C   C17       1.0  0.5383138416854365  0.281301771019578  0.20541293289095813  1.0000
  C   C18       1.0  0.46168521715618044  0.7186976373645777  0.7945867182268672  1.0000
  C   C19       1.0  0.5965096751965646  0.1883370525312245  0.34264282604113555  1.0000
  C   C20       1.0  0.40348938364505227  0.8116623558529383  0.6573576897545976  1.0000
  C   C21       1.0  0.7470735956402877  0.2092419435353818  0.5701966078500931  1.0000
  C   C22       1.0  0.2529267712101984  0.7907564042251849  0.42980333013726835  1.0000
  C   C23       1.0  0.6782143884432941  0.3654463437144031  0.5177374685325519  1.0000
  C   C24       1.0  0.3217852341861445  0.6345541252933486  0.48226255554900627  1.0000
  C   C25       1.0  0.8511266135776053  0.9862134229314917  0.6975353301500177  1.0000
  C   C26       1.0  0.14887207315347692  0.013787046076259898  0.302463066998051  1.0000
  C   C27       1.0  0.9153178741689274  0.8565532493968747  0.7994554024457727  1.0000
  C   C28       1.0  0.0846808125621621  0.1434472196108771  0.2005455887360199  1.0000
  C   C29       1.0  0.9641597953641536  0.7358765576890037  0.7736032719554017  1.0000
  C   C30       1.0  0.035839263477456  0.2641228506951592  0.2263946498066076  1.0000
  C   C31       1.0  0.952061759671686  0.7422965122931728  0.6508276136986665  1.0000
  C   C32       1.0  0.04793729916992361  0.25770289609099006  0.34917290209706653  1.0000
  C   C33       1.0  0.8888422045608022  0.8709236384488933  0.5486277303742993  1.0000
  C   C34       1.0  0.11115461037357482  0.1290768305588585  0.45137260097421716  1.0000
  C   C35       1.0  0.8387748208383385  0.9915133590222  0.5747901760498593  1.0000
  C   C36       1.0  0.161222366206573  0.008486049361963  0.4252122739463288  1.0000
  C   C37       1.0  0.7329081746061662  0.1926272749620637  0.36259801740346376  1.0000
  C   C38       1.0  0.2670908842354436  0.8073721334220991  0.6374016337143686  1.0000
  C   C39       1.0  0.21591017342547045  0.9791730035258298  0.9048781269745733  1.0000
  C   C40       1.0  0.7840898213144953  0.020826404858326  0.09512315107674847  1.0000
  C   C41       1.0  0.2580553761136741  0.0885154025186736  0.7957801190867853  1.0000
  C   C42       1.0  0.7419425663963609  0.9114871877362631  0.2042200935112887  1.0000
  C   C43       1.0  0.3964904235879345  0.05530197472591421  0.7784687277049044  1.0000
  C   C44       1.0  0.6035091990415041  0.9446984942818375  0.22153129637665359  1.0000
  C   C45       1.0  0.44389868857359016  0.1481542671134903  0.6780732450224107  1.0000
  C   C46       1.0  0.5561022420647319  0.8518451412706726  0.3219270659286835  1.0000
  C   C47       1.0  0.35284831129715144  0.2770401854257329  0.5938976134803794  1.0000
  C   C48       1.0  0.6471522472306432  0.7229602835820188  0.40610144350095106  1.0000
  C   C49       1.0  0.017229752303038  0.2558616535347653  0.7186314544865126  1.0000
  C   C50       1.0  0.9827696898931749  0.7441419973437676  0.2813647052634279  1.0000
  C   C51       1.0  0.16671201820427933  0.21729207660091282  0.7092856843037296  1.0000
  C   C52       1.0  0.8332861159830574  0.782712634901209  0.2907127826104058  1.0000
  C   C53       1.0  0.21501843621127392  0.3109695341432896  0.6089649245636437  1.0000
  C   C54       1.0  0.7849838136800004  0.6890341167352361  0.3910326572751543  1.0000
  N   N1        1.0  0.3609357703626301  0.6454297596087599  0.17074807120596347  1.0000
  N   N2        1.0  0.6390660961740406  0.3545696487754029  0.8292521373228041  1.0000
  N   N3        1.0  0.4916865921206722  0.43241729920276134  0.17663933485455627  1.0000
  N   N4        1.0  0.5083119029331088  0.5675810485578054  0.823360807977444  1.0000
  N   N5        1.0  0.7923180154298421  0.12400917103486361  0.6912136031080037  1.0000
  N   N6        1.0  0.20768010751341848  0.875990237349292  0.3087870151100489  1.0000
  N   N7        1.0  0.7729672437575416  0.1337435743649635  0.4970940955184204  1.0000
  N   N8        1.0  0.2270305070751916  0.8662568946427881  0.5029061334077766  1.0000
  O   O1        1.0  0.9781199504459438  0.1922062073959196  0.8303207597926985  1.0000
  O   O2        1.0  0.02188154398020705  0.8077942616118321  0.16967560073258883  1.0000
  O   O3        1.0  0.9409059001120282  0.343113853355014  0.6214685601436258  1.0000
  O   O4        1.0  0.05909260618582837  0.6568897975235188  0.3785294313844574  1.0000
  O   O5        1.0  0.1877713876980138  0.8905080530806444  0.8852595865100239  1.0000
  O   O6        1.0  0.8122293625070826  0.10949453717429242  0.11473858946527571  1.0000
  O   O7        1.0  0.22581267725005458  0.9791496698068016  0.015577337012153799  1.0000
  O   O8        1.0  0.7741865732688638  0.0208518598245462  0.9844240271333646  1.0000
